data_image0
_chemical_formula_structural       In4Mn2O8
_chemical_formula_sum              "In4 Mn2 O8"
_cell_length_a       6.47416
_cell_length_b       6.47416
_cell_length_c       6.47416
_cell_angle_alpha    60
_cell_angle_beta     60
_cell_angle_gamma    60

_space_group_name_H-M_alt    "P 1"
_space_group_IT_number       1

loop_
  _space_group_symop_operation_xyz
  'x, y, z'

loop_
  _atom_site_type_symbol
  _atom_site_label
  _atom_site_symmetry_multiplicity
  _atom_site_fract_x
  _atom_site_fract_y
  _atom_site_fract_z
  _atom_site_occupancy
  In  In1       1.0  0.62500  0.62500  0.12500  1.0000
  In  In1       1.0  0.62500  0.62500  0.62500  1.0000
  In  In1       1.0  0.62500  0.12500  0.62500  1.0000
  In  In1       1.0  0.12500  0.62500  0.62500  1.0000
  Mn  Mn1       1.0  0.00000  0.00000  0.00000  1.0000
  Mn  Mn1       1.0  0.25000  0.25000  0.25000  1.0000
  O   O1        1.0  0.86658  0.86658  0.86658  1.0000
  O   O1        1.0  0.86658  0.86658  0.40025  1.0000
  O   O1        1.0  0.86658  0.40025  0.86658  1.0000
  O   O1        1.0  0.40025  0.86658  0.86658  1.0000
  O   O1        1.0  0.84974  0.38342  0.38342  1.0000
  O   O1        1.0  0.38342  0.84974  0.38342  1.0000
  O   O1        1.0  0.38342  0.38342  0.84974  1.0000
  O   O1        1.0  0.38342  0.38342  0.38342  1.0000
