data_image0
_chemical_formula_structural       MnAl4MnO8
_chemical_formula_sum              "Mn2 Al4 O8"
_cell_length_a       5.86035
_cell_length_b       5.86035
_cell_length_c       5.86035
_cell_angle_alpha    60
_cell_angle_beta     60
_cell_angle_gamma    60

_space_group_name_H-M_alt    "P 1"
_space_group_IT_number       1

loop_
  _space_group_symop_operation_xyz
  'x, y, z'

loop_
  _atom_site_type_symbol
  _atom_site_label
  _atom_site_symmetry_multiplicity
  _atom_site_fract_x
  _atom_site_fract_y
  _atom_site_fract_z
  _atom_site_occupancy
  Mn  Mn1       1.0  0.00000  0.00000  0.00000  1.0000
  Al  Al1       1.0  0.62500  0.62500  0.62500  1.0000
  Al  Al1       1.0  0.62500  0.12500  0.62500  1.0000
  Al  Al1       1.0  0.12500  0.62500  0.62500  1.0000
  Al  Al1       1.0  0.62500  0.62500  0.12500  1.0000
  Mn  Mn1       1.0  0.25000  0.25000  0.25000  1.0000
  O   O1        1.0  0.85854  0.85854  0.85854  1.0000
  O   O1        1.0  0.85854  0.85854  0.42438  1.0000
  O   O1        1.0  0.85854  0.42438  0.85854  1.0000
  O   O1        1.0  0.42438  0.85854  0.85854  1.0000
  O   O1        1.0  0.82562  0.39146  0.39146  1.0000
  O   O1        1.0  0.39146  0.82562  0.39146  1.0000
  O   O1        1.0  0.39146  0.39146  0.82562  1.0000
  O   O1        1.0  0.39146  0.39146  0.39146  1.0000
