data_image0
_chemical_formula_structural       OAl3Mg2AlO7
_chemical_formula_sum              "O8 Al4 Mg2"
_cell_length_a       5.77743
_cell_length_b       5.77743
_cell_length_c       5.77743
_cell_angle_alpha    60
_cell_angle_beta     60
_cell_angle_gamma    60

_space_group_name_H-M_alt    "P 1"
_space_group_IT_number       1

loop_
  _space_group_symop_operation_xyz
  'x, y, z'

loop_
  _atom_site_type_symbol
  _atom_site_label
  _atom_site_symmetry_multiplicity
  _atom_site_fract_x
  _atom_site_fract_y
  _atom_site_fract_z
  _atom_site_occupancy
  O   O1        1.0  0.86138  0.86138  0.86138  1.0000
  Al  Al1       1.0  0.62500  0.62500  0.62500  1.0000
  Al  Al1       1.0  0.62500  0.12500  0.62500  1.0000
  Al  Al1       1.0  0.12500  0.62500  0.62500  1.0000
  Mg  Mg1       1.0  0.00000  0.00000  0.00000  1.0000
  Mg  Mg1       1.0  0.25000  0.25000  0.25000  1.0000
  Al  Al1       1.0  0.62500  0.62500  0.12500  1.0000
  O   O1        1.0  0.86138  0.86138  0.41586  1.0000
  O   O1        1.0  0.86138  0.41586  0.86138  1.0000
  O   O1        1.0  0.41586  0.86138  0.86138  1.0000
  O   O1        1.0  0.83414  0.38862  0.38862  1.0000
  O   O1        1.0  0.38862  0.83414  0.38862  1.0000
  O   O1        1.0  0.38862  0.38862  0.83414  1.0000
  O   O1        1.0  0.38862  0.38862  0.38862  1.0000
