data_image0
_chemical_formula_structural       Co6O8
_chemical_formula_sum              "Co6 O8"
_cell_length_a       5.76105
_cell_length_b       5.76102
_cell_length_c       5.76106
_cell_angle_alpha    60.0004
_cell_angle_beta     60.0008
_cell_angle_gamma    60.0003

_space_group_name_H-M_alt    "P 1"
_space_group_IT_number       1

loop_
  _space_group_symop_operation_xyz
  'x, y, z'

loop_
  _atom_site_type_symbol
  _atom_site_label
  _atom_site_symmetry_multiplicity
  _atom_site_fract_x
  _atom_site_fract_y
  _atom_site_fract_z
  _atom_site_occupancy
  Co  Co2       1.0  0.62500  0.62500  0.12500  1.0000
  Co  Co1       1.0  0.25000  0.25000  0.25000  1.0000
  Co  Co1       1.0  0.00000  1.00000  0.00000  1.0000
  Co  Co2       1.0  0.62500  0.62500  0.62500  1.0000
  Co  Co2       1.0  0.62500  0.12500  0.62500  1.0000
  Co  Co2       1.0  0.12500  0.62500  0.62500  1.0000
  O   O1        1.0  0.86134  0.86133  0.86134  1.0000
  O   O1        1.0  0.86133  0.86133  0.41600  1.0000
  O   O1        1.0  0.86134  0.41599  0.86134  1.0000
  O   O1        1.0  0.41600  0.86134  0.86133  1.0000
  O   O1        1.0  0.83400  0.38866  0.38867  1.0000
  O   O1        1.0  0.38866  0.83401  0.38866  1.0000
  O   O1        1.0  0.38867  0.38867  0.83400  1.0000
  O   O1        1.0  0.38866  0.38867  0.38866  1.0000
