data_image0
_chemical_formula_structural       Al4O6
_chemical_formula_sum              "Al4 O6"
_cell_length_a       5.17958
_cell_length_b       5.17958
_cell_length_c       5.17958
_cell_angle_alpha    55.3122
_cell_angle_beta     55.3122
_cell_angle_gamma    55.3122

_space_group_name_H-M_alt    "P 1"
_space_group_IT_number       1

loop_
  _space_group_symop_operation_xyz
  'x, y, z'

loop_
  _atom_site_type_symbol
  _atom_site_label
  _atom_site_symmetry_multiplicity
  _atom_site_fract_x
  _atom_site_fract_y
  _atom_site_fract_z
  _atom_site_occupancy
  Al  Al1       1.0  0.00021  0.00021  0.00021  1.0000
  Al  Al1       1.0  0.79579  0.79579  0.79579  1.0000
  Al  Al1       1.0  0.29579  0.29579  0.29579  1.0000
  Al  Al1       1.0  0.50021  0.50021  0.50021  1.0000
  O   O1        1.0  0.70411  0.09189  0.39800  1.0000
  O   O1        1.0  0.39800  0.70411  0.09189  1.0000
  O   O1        1.0  0.09189  0.39800  0.70411  1.0000
  O   O1        1.0  0.89800  0.59189  0.20411  1.0000
  O   O1        1.0  0.59189  0.20411  0.89800  1.0000
  O   O1        1.0  0.20411  0.89800  0.59189  1.0000
