data_image0
_chemical_formula_structural       BaTiO3
_chemical_formula_sum              "Ba1 Ti1 O3"
_cell_length_a       4.03027
_cell_length_b       4.03027
_cell_length_c       4.12803
_cell_angle_alpha    90
_cell_angle_beta     90
_cell_angle_gamma    90

_space_group_name_H-M_alt    "P 1"
_space_group_IT_number       1

loop_
  _space_group_symop_operation_xyz
  'x, y, z'

loop_
  _atom_site_type_symbol
  _atom_site_label
  _atom_site_symmetry_multiplicity
  _atom_site_fract_x
  _atom_site_fract_y
  _atom_site_fract_z
  _atom_site_occupancy
  Ba  Ba1       1.0  0.50000  0.50000  0.51755  1.0000
  Ti  Ti1       1.0  0.00000  0.00000  0.00297  1.0000
  O   O1        1.0  1.00000  1.00000  0.54823  1.0000
  O   O2        1.0  0.50000  1.00000  0.03562  1.0000
  O   O2        1.0  1.00000  0.50000  0.03562  1.0000
