data_image0
_chemical_formula_structural       Co4O4
_chemical_formula_sum              "Co4 O4"
_cell_length_a       4.57386
_cell_length_b       4.5738
_cell_length_c       5.62602
_cell_angle_alpha    66.0161
_cell_angle_beta     66.0156
_cell_angle_gamma    89.9956

_space_group_name_H-M_alt    "P 1"
_space_group_IT_number       1

loop_
  _space_group_symop_operation_xyz
  'x, y, z'

loop_
  _atom_site_type_symbol
  _atom_site_label
  _atom_site_symmetry_multiplicity
  _atom_site_fract_x
  _atom_site_fract_y
  _atom_site_fract_z
  _atom_site_occupancy
  Co  Co1       1.0  1.00000  0.00000  0.99994  1.0000
  Co  Co1       1.0  0.24999  0.74999  0.49993  1.0000
  Co  Co1       1.0  0.50000  0.50000  0.99994  1.0000
  Co  Co1       1.0  0.74999  0.24999  0.49993  1.0000
  O   O1        1.0  0.12503  0.12502  0.24992  1.0000
  O   O1        1.0  0.62503  0.62503  0.24992  1.0000
  O   O1        1.0  0.87499  0.37499  0.74993  1.0000
  O   O1        1.0  0.37499  0.87499  0.74993  1.0000
