data_image0
_chemical_formula_structural       OTi2O3
_chemical_formula_sum              "O4 Ti2"
_cell_length_a       3.82913
_cell_length_b       3.82913
_cell_length_c       5.57563
_cell_angle_alpha    69.9192
_cell_angle_beta     69.9192
_cell_angle_gamma    90.0003

_space_group_name_H-M_alt    "P 1"
_space_group_IT_number       1

loop_
  _space_group_symop_operation_xyz
  'x, y, z'

loop_
  _atom_site_type_symbol
  _atom_site_label
  _atom_site_symmetry_multiplicity
  _atom_site_fract_x
  _atom_site_fract_y
  _atom_site_fract_z
  _atom_site_occupancy
  O   O1        1.0  0.91854  0.16856  0.16289  1.0000
  Ti  Ti1       1.0  0.12503  0.37497  0.75000  1.0000
  Ti  Ti1       1.0  0.87497  0.62503  0.25000  1.0000
  O   O1        1.0  0.66856  0.41854  0.66289  1.0000
  O   O1        1.0  0.08146  0.83144  0.83711  1.0000
  O   O1        1.0  0.33144  0.58146  0.33711  1.0000
