data_image0
_chemical_formula_structural       Ti2O4
_chemical_formula_sum              "Ti2 O4"
_cell_length_a       4.65948
_cell_length_b       4.65948
_cell_length_c       2.99474
_cell_angle_alpha    90
_cell_angle_beta     90
_cell_angle_gamma    89.9963

_space_group_name_H-M_alt    "P 1"
_space_group_IT_number       1

loop_
  _space_group_symop_operation_xyz
  'x, y, z'

loop_
  _atom_site_type_symbol
  _atom_site_label
  _atom_site_symmetry_multiplicity
  _atom_site_fract_x
  _atom_site_fract_y
  _atom_site_fract_z
  _atom_site_occupancy
  Ti  Ti1       1.0  1.00000  0.00000  0.00000  1.0000
  Ti  Ti1       1.0  0.50000  0.50000  0.50000  1.0000
  O   O1        1.0  0.80490  0.19510  0.50000  1.0000
  O   O1        1.0  0.19510  0.80490  0.50000  1.0000
  O   O1        1.0  0.69510  0.69510  1.00000  1.0000
  O   O1        1.0  0.30490  0.30490  0.00000  1.0000
