data_image0
_chemical_formula_structural       ONi2O
_chemical_formula_sum              "O2 Ni2"
_cell_length_a       5.13447
_cell_length_b       5.13442
_cell_length_c       5.13437
_cell_angle_alpha    33.6298
_cell_angle_beta     33.63
_cell_angle_gamma    33.6302

_space_group_name_H-M_alt    "P 1"
_space_group_IT_number       1

loop_
  _space_group_symop_operation_xyz
  'x, y, z'

loop_
  _atom_site_type_symbol
  _atom_site_label
  _atom_site_symmetry_multiplicity
  _atom_site_fract_x
  _atom_site_fract_y
  _atom_site_fract_z
  _atom_site_occupancy
  O   O1        1.0  0.75000  0.75000  0.75000  1.0000
  Ni  Ni1       1.0  0.50000  0.50000  0.50000  1.0000
  Ni  Ni1       1.0  1.00000  0.00000  -0.00000  1.0000
  O   O1        1.0  0.25000  0.25000  0.25000  1.0000
