data_image0
_chemical_formula_structural       NiMn2NiO6
_chemical_formula_sum              "Ni2 Mn2 O6"
_cell_length_a       5.40613
_cell_length_b       5.40604
_cell_length_c       5.40594
_cell_angle_alpha    54.6489
_cell_angle_beta     54.6478
_cell_angle_gamma    54.6478

_space_group_name_H-M_alt    "P 1"
_space_group_IT_number       1

loop_
  _space_group_symop_operation_xyz
  'x, y, z'

loop_
  _atom_site_type_symbol
  _atom_site_label
  _atom_site_symmetry_multiplicity
  _atom_site_fract_x
  _atom_site_fract_y
  _atom_site_fract_z
  _atom_site_occupancy
  Ni  Ni1       1.0  0.64594  0.64595  0.64595  1.0000
  Mn  Mn1       1.0  0.15678  0.15678  0.15678  1.0000
  Mn  Mn1       1.0  0.84322  0.84322  0.84322  1.0000
  Ni  Ni1       1.0  0.35406  0.35405  0.35405  1.0000
  O   O1        1.0  0.77097  0.44064  0.05134  1.0000
  O   O1        1.0  0.05137  0.77096  0.44063  1.0000
  O   O1        1.0  0.44066  0.05134  0.77095  1.0000
  O   O1        1.0  0.22903  0.55936  0.94866  1.0000
  O   O1        1.0  0.94863  0.22904  0.55937  1.0000
  O   O1        1.0  0.55934  0.94866  0.22905  1.0000
