data_image0
_chemical_formula_structural       CaAl23Ca4AlCa7O48
_chemical_formula_sum              "Ca12 Al24 O48"
_cell_length_a       8.78359
_cell_length_b       8.214
_cell_length_c       15.3489
_cell_angle_alpha    90
_cell_angle_beta     90.2299
_cell_angle_gamma    90

_space_group_name_H-M_alt    "P 1"
_space_group_IT_number       1

loop_
  _space_group_symop_operation_xyz
  'x, y, z'

loop_
  _atom_site_type_symbol
  _atom_site_label
  _atom_site_symmetry_multiplicity
  _atom_site_fract_x
  _atom_site_fract_y
  _atom_site_fract_z
  _atom_site_occupancy
  Ca  Ca2       1.0  0.23259  0.96728  0.42966  1.0000
  Al  Al1       1.0  0.57542  0.66972  0.76232  1.0000
  Al  Al1       1.0  0.92458  0.16972  0.73768  1.0000
  Al  Al1       1.0  0.42458  0.33028  0.23768  1.0000
  Al  Al2       1.0  0.08304  0.22495  0.26724  1.0000
  Al  Al2       1.0  0.58304  0.27505  0.76724  1.0000
  Al  Al2       1.0  0.91696  0.77505  0.73276  1.0000
  Al  Al2       1.0  0.41696  0.72495  0.23276  1.0000
  Al  Al3       1.0  0.90069  0.33185  0.42188  1.0000
  Al  Al3       1.0  0.40069  0.16815  0.92188  1.0000
  Al  Al3       1.0  0.09931  0.66815  0.57812  1.0000
  Al  Al3       1.0  0.59931  0.83185  0.07812  1.0000
  Al  Al4       1.0  0.88827  0.72088  0.42112  1.0000
  Al  Al4       1.0  0.38827  0.77912  0.92113  1.0000
  Al  Al4       1.0  0.11173  0.27912  0.57888  1.0000
  Al  Al4       1.0  0.61173  0.22088  0.07887  1.0000
  Al  Al5       1.0  0.56230  0.22733  0.40917  1.0000
  Al  Al5       1.0  0.06230  0.27267  0.90918  1.0000
  Al  Al5       1.0  0.43770  0.77267  0.59083  1.0000
  Al  Al5       1.0  0.93770  0.72733  0.09083  1.0000
  Al  Al6       1.0  0.56119  0.83588  0.40768  1.0000
  Al  Al6       1.0  0.06119  0.66412  0.90768  1.0000
  Al  Al6       1.0  0.43881  0.16412  0.59232  1.0000
  Al  Al6       1.0  0.93881  0.33588  0.09232  1.0000
  Ca  Ca1       1.0  0.26029  0.53512  0.41000  1.0000
  Ca  Ca1       1.0  0.76029  0.96488  0.91000  1.0000
  Ca  Ca1       1.0  0.73971  0.46488  0.59000  1.0000
  Ca  Ca1       1.0  0.23971  0.03512  0.09000  1.0000
  Al  Al1       1.0  0.07542  0.83028  0.26232  1.0000
  Ca  Ca2       1.0  0.73259  0.53272  0.92966  1.0000
  Ca  Ca2       1.0  0.76741  0.03272  0.57034  1.0000
  Ca  Ca2       1.0  0.26741  0.46728  0.07034  1.0000
  Ca  Ca3       1.0  0.76095  0.04856  0.25322  1.0000
  Ca  Ca3       1.0  0.26095  0.45144  0.75322  1.0000
  Ca  Ca3       1.0  0.23905  0.95144  0.74678  1.0000
  Ca  Ca3       1.0  0.73905  0.54856  0.24678  1.0000
  O   O1        1.0  0.42337  0.73977  0.47599  1.0000
  O   O1        1.0  0.92337  0.76023  0.97599  1.0000
  O   O1        1.0  0.57663  0.26022  0.52401  1.0000
  O   O1        1.0  0.07663  0.23977  0.02401  1.0000
  O   O2        1.0  0.48355  0.03216  0.38987  1.0000
  O   O2        1.0  0.98355  0.46784  0.88987  1.0000
  O   O2        1.0  0.51645  0.96784  0.61013  1.0000
  O   O2        1.0  0.01645  0.53216  0.11013  1.0000
  O   O3        1.0  0.44321  0.36402  0.35125  1.0000
  O   O3        1.0  0.94321  0.13598  0.85125  1.0000
  O   O3        1.0  0.55679  0.63598  0.64875  1.0000
  O   O3        1.0  0.05679  0.86402  0.14875  1.0000
  O   O4        1.0  0.25074  0.74528  0.29745  1.0000
  O   O4        1.0  0.75074  0.75473  0.79745  1.0000
  O   O4        1.0  0.74926  0.25472  0.70255  1.0000
  O   O4        1.0  0.24926  0.24527  0.20255  1.0000
  O   O5        1.0  0.06533  0.76023  0.47425  1.0000
  O   O5        1.0  0.56533  0.73977  0.97425  1.0000
  O   O5        1.0  0.93467  0.23977  0.52575  1.0000
  O   O5        1.0  0.43467  0.26023  0.02575  1.0000
  O   O6        1.0  0.06772  0.35592  0.35848  1.0000
  O   O6        1.0  0.56772  0.14408  0.85848  1.0000
  O   O6        1.0  0.93228  0.64408  0.64152  1.0000
  O   O6        1.0  0.43228  0.85592  0.14152  1.0000
  O   O7        1.0  0.06875  0.02608  0.31235  1.0000
  O   O7        1.0  0.56875  0.47392  0.81235  1.0000
  O   O7        1.0  0.93125  0.97392  0.68765  1.0000
  O   O7        1.0  0.43125  0.52608  0.18765  1.0000
  O   O8        1.0  0.91584  0.72782  0.30607  1.0000
  O   O8        1.0  0.41584  0.77218  0.80607  1.0000
  O   O8        1.0  0.08416  0.27218  0.69393  1.0000
  O   O8        1.0  0.58416  0.22782  0.19393  1.0000
  O   O9        1.0  0.82220  0.52432  0.44759  1.0000
  O   O9        1.0  0.32220  0.97567  0.94759  1.0000
  O   O9        1.0  0.17780  0.47567  0.55241  1.0000
  O   O9        1.0  0.67780  0.02432  0.05241  1.0000
  O   O10       1.0  0.74445  0.85723  0.45491  1.0000
  O   O10       1.0  0.24445  0.64277  0.95491  1.0000
  O   O10       1.0  0.25555  0.14277  0.54509  1.0000
  O   O10       1.0  0.75555  0.35723  0.04509  1.0000
  O   O11       1.0  0.75146  0.22822  0.36676  1.0000
  O   O11       1.0  0.25146  0.27178  0.86675  1.0000
  O   O11       1.0  0.24854  0.77178  0.63325  1.0000
  O   O11       1.0  0.74854  0.72822  0.13325  1.0000
  O   O12       1.0  0.57673  0.74306  0.30406  1.0000
  O   O12       1.0  0.07673  0.75694  0.80405  1.0000
  O   O12       1.0  0.42327  0.25694  0.69594  1.0000
  O   O12       1.0  0.92327  0.24306  0.19595  1.0000
