data_image0
_chemical_formula_structural       TiBaO18BaTi7
_chemical_formula_sum              "Ti8 Ba2 O18"
_cell_length_a       14.8053
_cell_length_b       3.84407
_cell_length_c       6.39506
_cell_angle_alpha    90
_cell_angle_beta     90
_cell_angle_gamma    90

_space_group_name_H-M_alt    "P 1"
_space_group_IT_number       1

loop_
  _space_group_symop_operation_xyz
  'x, y, z'

loop_
  _atom_site_type_symbol
  _atom_site_label
  _atom_site_symmetry_multiplicity
  _atom_site_fract_x
  _atom_site_fract_y
  _atom_site_fract_z
  _atom_site_occupancy
  Ti  Ti1       1.0  0.53776  0.75000  0.19124  1.0000
  Ba  Ba1       1.0  0.25000  0.75000  0.72596  1.0000
  O   O1        1.0  0.00988  0.75000  0.84970  1.0000
  O   O1        1.0  0.49012  0.75000  0.84970  1.0000
  O   O1        1.0  0.99012  0.25000  0.15030  1.0000
  O   O1        1.0  0.50988  0.25000  0.15030  1.0000
  O   O2        1.0  0.09882  0.75000  0.25924  1.0000
  O   O2        1.0  0.40118  0.75000  0.25924  1.0000
  O   O2        1.0  0.90118  0.25000  0.74076  1.0000
  O   O2        1.0  0.59882  0.25000  0.74076  1.0000
  O   O3        1.0  0.65083  0.75000  0.04184  1.0000
  O   O3        1.0  0.84917  0.75000  0.04184  1.0000
  O   O3        1.0  0.34917  0.25000  0.95816  1.0000
  O   O3        1.0  0.15083  0.25000  0.95816  1.0000
  O   O4        1.0  0.59567  0.75000  0.43708  1.0000
  O   O4        1.0  0.90433  0.75000  0.43708  1.0000
  O   O4        1.0  0.40433  0.25000  0.56292  1.0000
  O   O4        1.0  0.09567  0.25000  0.56292  1.0000
  O   O5        1.0  0.75000  0.75000  0.65992  1.0000
  O   O5        1.0  0.25000  0.25000  0.34008  1.0000
  Ba  Ba1       1.0  0.75000  0.25000  0.27404  1.0000
  Ti  Ti1       1.0  0.96224  0.75000  0.19124  1.0000
  Ti  Ti1       1.0  0.46224  0.25000  0.80876  1.0000
  Ti  Ti1       1.0  0.03776  0.25000  0.80877  1.0000
  Ti  Ti2       1.0  0.62797  0.75000  0.74189  1.0000
  Ti  Ti2       1.0  0.87203  0.75000  0.74189  1.0000
  Ti  Ti2       1.0  0.37203  0.25000  0.25811  1.0000
  Ti  Ti2       1.0  0.12797  0.25000  0.25811  1.0000
