data_image0
_chemical_formula_structural       YAl19O48AlY11
_chemical_formula_sum              "Y12 Al20 O48"
_cell_length_a       10.5598
_cell_length_b       10.5598
_cell_length_c       10.5598
_cell_angle_alpha    109.471
_cell_angle_beta     109.471
_cell_angle_gamma    109.471

_space_group_name_H-M_alt    "P 1"
_space_group_IT_number       1

loop_
  _space_group_symop_operation_xyz
  'x, y, z'

loop_
  _atom_site_type_symbol
  _atom_site_label
  _atom_site_symmetry_multiplicity
  _atom_site_fract_x
  _atom_site_fract_y
  _atom_site_fract_z
  _atom_site_occupancy
  Y   Y1        1.0  0.12500  0.75000  0.37500  1.0000
  Al  Al1       1.0  1.00000  0.00000  0.50000  1.0000
  Al  Al1       1.0  0.50000  0.50000  0.50000  1.0000
  Al  Al1       1.0  0.50000  0.00000  0.00000  1.0000
  Al  Al1       1.0  0.50000  1.00000  0.50000  1.0000
  Al  Al1       1.0  0.50000  0.50000  0.00000  1.0000
  Al  Al1       1.0  -0.00000  0.50000  0.50000  1.0000
  Al  Al1       1.0  0.00000  0.00000  0.00000  1.0000
  Al  Al2       1.0  0.37500  0.75000  0.62500  1.0000
  Al  Al2       1.0  0.12500  0.25000  0.87500  1.0000
  Al  Al2       1.0  0.62500  0.87500  0.25000  1.0000
  Al  Al2       1.0  0.87500  0.62500  0.75000  1.0000
  Al  Al2       1.0  0.75000  0.37500  0.12500  1.0000
  Al  Al2       1.0  0.25000  0.12500  0.37500  1.0000
  Al  Al2       1.0  0.62500  0.25000  0.37500  1.0000
  Al  Al2       1.0  0.87500  0.75000  0.12500  1.0000
  Al  Al2       1.0  0.37500  0.12500  0.75000  1.0000
  Al  Al2       1.0  0.12500  0.37500  0.25000  1.0000
  Al  Al2       1.0  0.25000  0.62500  0.87500  1.0000
  Al  Al2       1.0  0.75000  0.87500  0.62500  1.0000
  O   O1        1.0  0.01851  0.69834  0.11753  1.0000
  O   O1        1.0  0.91919  0.80166  0.32017  1.0000
  O   O1        1.0  0.58081  0.40098  0.38247  1.0000
  O   O1        1.0  0.48149  0.09902  0.17983  1.0000
  O   O1        1.0  0.32017  0.41919  0.30166  1.0000
  O   O1        1.0  0.11753  0.51851  0.19834  1.0000
  O   O1        1.0  0.17983  0.98149  0.59902  1.0000
  O   O1        1.0  0.38247  0.08081  0.90098  1.0000
  O   O1        1.0  0.90098  0.88247  0.58081  1.0000
  O   O1        1.0  0.59902  0.67983  0.48149  1.0000
  O   O1        1.0  0.19834  0.61753  0.01851  1.0000
  O   O1        1.0  0.30166  0.82017  0.91919  1.0000
  O   O1        1.0  0.98149  0.30166  0.88247  1.0000
  O   O1        1.0  0.08081  0.19834  0.67983  1.0000
  O   O1        1.0  0.41919  0.59902  0.61753  1.0000
  O   O1        1.0  0.51851  0.90098  0.82017  1.0000
  O   O1        1.0  0.67983  0.58081  0.69834  1.0000
  O   O1        1.0  0.88247  0.48149  0.80166  1.0000
  O   O1        1.0  0.82017  0.01851  0.40098  1.0000
  O   O1        1.0  0.61753  0.91919  0.09902  1.0000
  O   O1        1.0  0.09902  0.11753  0.41919  1.0000
  O   O1        1.0  0.40098  0.32017  0.51851  1.0000
  O   O1        1.0  0.80166  0.38247  0.98149  1.0000
  O   O1        1.0  0.69834  0.17983  0.08081  1.0000
  O   O1        1.0  0.51851  0.11753  0.69834  1.0000
  O   O1        1.0  0.41919  0.32017  0.80166  1.0000
  O   O1        1.0  0.08081  0.38247  0.40098  1.0000
  O   O1        1.0  0.98149  0.17983  0.09902  1.0000
  O   O1        1.0  0.82017  0.30166  0.41919  1.0000
  O   O1        1.0  0.61753  0.19834  0.51851  1.0000
  O   O1        1.0  0.67983  0.59902  0.98149  1.0000
  O   O1        1.0  0.88247  0.90098  0.08081  1.0000
  O   O1        1.0  0.40098  0.58081  0.88247  1.0000
  O   O1        1.0  0.09902  0.48149  0.67983  1.0000
  O   O1        1.0  0.69834  0.01851  0.61753  1.0000
  O   O1        1.0  0.80166  0.91919  0.82017  1.0000
  O   O1        1.0  0.48149  0.88247  0.30166  1.0000
  O   O1        1.0  0.58081  0.67983  0.19834  1.0000
  O   O1        1.0  0.91919  0.61753  0.59902  1.0000
  O   O1        1.0  0.01851  0.82017  0.90098  1.0000
  O   O1        1.0  0.17983  0.69834  0.58081  1.0000
  O   O1        1.0  0.38247  0.80166  0.48149  1.0000
  O   O1        1.0  0.32017  0.40098  0.01851  1.0000
  O   O1        1.0  0.11753  0.09902  0.91919  1.0000
  O   O1        1.0  0.59902  0.41919  0.11753  1.0000
  O   O1        1.0  0.90098  0.51851  0.32017  1.0000
  O   O1        1.0  0.30166  0.98149  0.38247  1.0000
  O   O1        1.0  0.19834  0.08081  0.17983  1.0000
  Al  Al1       1.0  1.00000  0.50000  1.00000  1.0000
  Y   Y1        1.0  0.37500  0.25000  0.12500  1.0000
  Y   Y1        1.0  0.37500  0.62500  0.25000  1.0000
  Y   Y1        1.0  0.12500  0.87500  0.75000  1.0000
  Y   Y1        1.0  0.75000  0.62500  0.37500  1.0000
  Y   Y1        1.0  0.25000  0.87500  0.12500  1.0000
  Y   Y1        1.0  0.87500  0.25000  0.62500  1.0000
  Y   Y1        1.0  0.62500  0.75000  0.87500  1.0000
  Y   Y1        1.0  0.62500  0.37500  0.75000  1.0000
  Y   Y1        1.0  0.87500  0.12500  0.25000  1.0000
  Y   Y1        1.0  0.25000  0.37500  0.62500  1.0000
  Y   Y1        1.0  0.75000  0.12500  0.87500  1.0000
