data_image0
_chemical_formula_structural       YAlO6AlY
_chemical_formula_sum              "Y2 Al2 O6"
_cell_length_a       3.53106
_cell_length_b       3.53106
_cell_length_c       11.4811
_cell_angle_alpha    90
_cell_angle_beta     90
_cell_angle_gamma    120

_space_group_name_H-M_alt    "P 1"
_space_group_IT_number       1

loop_
  _space_group_symop_operation_xyz
  'x, y, z'

loop_
  _atom_site_type_symbol
  _atom_site_label
  _atom_site_symmetry_multiplicity
  _atom_site_fract_x
  _atom_site_fract_y
  _atom_site_fract_z
  _atom_site_occupancy
  Y   Y1        1.0  1.00000  0.00000  0.50000  1.0000
  Al  Al1       1.0  0.66667  0.33334  0.75000  1.0000
  O   O1        1.0  1.00000  1.00000  0.25000  1.0000
  O   O1        1.0  0.00000  0.00000  0.75000  1.0000
  O   O2        1.0  0.33333  0.66667  0.40773  1.0000
  O   O2        1.0  0.66667  0.33333  0.59227  1.0000
  O   O2        1.0  0.66667  0.33333  0.90773  1.0000
  O   O2        1.0  0.33333  0.66667  0.09227  1.0000
  Al  Al1       1.0  0.33333  0.66666  0.25000  1.0000
  Y   Y1        1.0  -0.00000  1.00000  1.00000  1.0000
