data_image0
_chemical_formula_structural       TiBa3O20Ti4BaTi3
_chemical_formula_sum              "Ti8 Ba4 O20"
_cell_length_a       10.4575
_cell_length_b       3.96314
_cell_length_c       11.0777
_cell_angle_alpha    90
_cell_angle_beta     90.0004
_cell_angle_gamma    90

_space_group_name_H-M_alt    "P 1"
_space_group_IT_number       1

loop_
  _space_group_symop_operation_xyz
  'x, y, z'

loop_
  _atom_site_type_symbol
  _atom_site_label
  _atom_site_symmetry_multiplicity
  _atom_site_fract_x
  _atom_site_fract_y
  _atom_site_fract_z
  _atom_site_occupancy
  Ti  Ti2       1.0  0.64570  0.25000  0.09277  1.0000
  Ba  Ba1       1.0  0.04939  0.25000  0.82605  1.0000
  Ba  Ba1       1.0  0.45061  0.75000  0.32605  1.0000
  Ba  Ba1       1.0  0.95061  0.75000  0.17395  1.0000
  O   O1        1.0  0.60183  0.25000  0.42402  1.0000
  O   O1        1.0  0.10183  0.25000  0.07598  1.0000
  O   O1        1.0  0.39817  0.75000  0.57598  1.0000
  O   O1        1.0  0.89817  0.75000  0.92402  1.0000
  O   O2        1.0  0.32886  0.25000  0.93147  1.0000
  O   O2        1.0  0.82886  0.25000  0.56853  1.0000
  O   O2        1.0  0.67114  0.75000  0.06853  1.0000
  O   O2        1.0  0.17114  0.75000  0.43147  1.0000
  O   O3        1.0  0.98824  0.25000  0.34749  1.0000
  O   O3        1.0  0.48824  0.25000  0.15251  1.0000
  O   O3        1.0  0.01176  0.75000  0.65251  1.0000
  O   O3        1.0  0.51176  0.75000  0.84749  1.0000
  O   O4        1.0  0.76579  0.25000  0.21890  1.0000
  O   O4        1.0  0.26579  0.25000  0.28110  1.0000
  O   O4        1.0  0.23421  0.75000  0.78110  1.0000
  O   O4        1.0  0.73421  0.75000  0.71890  1.0000
  O   O5        1.0  0.69725  0.25000  0.91743  1.0000
  O   O5        1.0  0.19725  0.25000  0.58257  1.0000
  O   O5        1.0  0.30275  0.75000  0.08257  1.0000
  O   O5        1.0  0.80275  0.75000  0.41743  1.0000
  Ti  Ti1       1.0  0.76977  0.25000  0.39614  1.0000
  Ti  Ti1       1.0  0.26978  0.25000  0.10386  1.0000
  Ti  Ti1       1.0  0.23023  0.75000  0.60386  1.0000
  Ti  Ti1       1.0  0.73022  0.75000  0.89614  1.0000
  Ba  Ba1       1.0  0.54939  0.25000  0.67395  1.0000
  Ti  Ti2       1.0  0.14571  0.25000  0.40723  1.0000
  Ti  Ti2       1.0  0.35430  0.75000  0.90723  1.0000
  Ti  Ti2       1.0  0.85429  0.75000  0.59277  1.0000
