data_image0
_chemical_formula_structural       SrO7Sr2Ti2
_chemical_formula_sum              "Sr3 O7 Ti2"
_cell_length_a       3.9517
_cell_length_b       3.9517
_cell_length_c       10.6445
_cell_angle_alpha    100.699
_cell_angle_beta     100.699
_cell_angle_gamma    90

_space_group_name_H-M_alt    "P 1"
_space_group_IT_number       1

loop_
  _space_group_symop_operation_xyz
  'x, y, z'

loop_
  _atom_site_type_symbol
  _atom_site_label
  _atom_site_symmetry_multiplicity
  _atom_site_fract_x
  _atom_site_fract_y
  _atom_site_fract_z
  _atom_site_occupancy
  Sr  Sr1       1.0  0.50000  0.50000  1.00000  1.0000
  O   O2        1.0  0.80576  0.80576  0.61172  1.0000
  O   O2        1.0  0.19424  0.19424  0.38828  1.0000
  O   O3        1.0  0.40350  0.90348  0.80712  1.0000
  O   O3        1.0  0.90348  0.40350  0.80712  1.0000
  O   O3        1.0  0.59650  0.09652  0.19288  1.0000
  O   O3        1.0  0.09652  0.59650  0.19288  1.0000
  O   O1        1.0  0.00000  1.00000  0.00000  1.0000
  Sr  Sr2       1.0  0.68455  0.68455  0.36910  1.0000
  Sr  Sr2       1.0  0.31545  0.31545  0.63090  1.0000
  Ti  Ti1       1.0  0.90219  0.90219  0.80440  1.0000
  Ti  Ti1       1.0  0.09781  0.09781  0.19560  1.0000
