data_image0
_chemical_formula_structural       Mn6Ba2O12
_chemical_formula_sum              "Mn6 Ba2 O12"
_cell_length_a       4.09333
_cell_length_b       5.71329
_cell_length_c       10.6773
_cell_angle_alpha    95.4842
_cell_angle_beta     101.134
_cell_angle_gamma    90.0378

_space_group_name_H-M_alt    "P 1"
_space_group_IT_number       1

loop_
  _space_group_symop_operation_xyz
  'x, y, z'

loop_
  _atom_site_type_symbol
  _atom_site_label
  _atom_site_symmetry_multiplicity
  _atom_site_fract_x
  _atom_site_fract_y
  _atom_site_fract_z
  _atom_site_occupancy
  Mn  Mn2       1.0  0.29503  0.64697  0.59066  1.0000
  Mn  Mn1       1.0  0.70704  0.37544  0.41530  1.0000
  Mn  Mn3       1.0  0.70739  0.87561  0.41583  1.0000
  Mn  Mn4       1.0  0.29504  0.14629  0.58900  1.0000
  Mn  Mn5       1.0  0.56026  0.76841  0.12642  1.0000
  Mn  Mn6       1.0  0.42121  0.20603  0.87181  1.0000
  Ba  Ba1       1.0  0.06475  0.26769  0.13433  1.0000
  Ba  Ba2       1.0  0.92827  0.70390  0.85988  1.0000
  O   O1        1.0  0.77401  0.64717  0.54860  1.0000
  O   O2        1.0  0.22869  0.37700  0.45827  1.0000
  O   O3        1.0  0.77291  0.14797  0.54566  1.0000
  O   O4        1.0  0.22917  0.87345  0.45915  1.0000
  O   O5        1.0  0.06026  0.76715  0.12058  1.0000
  O   O6        1.0  0.94885  0.20102  0.86838  1.0000
  O   O7        1.0  0.64631  0.10374  0.29453  1.0000
  O   O8        1.0  0.35776  0.92328  0.71434  1.0000
  O   O9        1.0  0.64446  0.60597  0.29078  1.0000
  O   O10       1.0  0.35879  0.41001  0.71569  1.0000
  O   O11       1.0  0.49823  0.46428  0.98837  1.0000
  O   O12       1.0  0.50156  0.98863  0.99241  1.0000
