data_image0
_chemical_formula_structural       Nb8Co4O24
_chemical_formula_sum              "Nb8 Co4 O24"
_cell_length_a       14.3397
_cell_length_b       5.82611
_cell_length_c       5.15433
_cell_angle_alpha    89.9998
_cell_angle_beta     90.0001
_cell_angle_gamma    89.9994

_space_group_name_H-M_alt    "P 1"
_space_group_IT_number       1

loop_
  _space_group_symop_operation_xyz
  'x, y, z'

loop_
  _atom_site_type_symbol
  _atom_site_label
  _atom_site_symmetry_multiplicity
  _atom_site_fract_x
  _atom_site_fract_y
  _atom_site_fract_z
  _atom_site_occupancy
  Nb  Nb1       1.0  0.15954  0.67661  0.25197  1.0000
  Nb  Nb1       1.0  0.34044  0.82328  0.75198  1.0000
  Nb  Nb1       1.0  0.65954  0.82339  0.74804  1.0000
  Nb  Nb1       1.0  0.84044  0.67671  0.24803  1.0000
  Nb  Nb1       1.0  0.84046  0.32339  0.74803  1.0000
  Nb  Nb1       1.0  0.65956  0.17672  0.24803  1.0000
  Nb  Nb1       1.0  0.34046  0.17661  0.25196  1.0000
  Nb  Nb1       1.0  0.15956  0.32329  0.75197  1.0000
  Co  Co1       1.0  1.00000  0.84628  0.75000  1.0000
  Co  Co1       1.0  0.50000  0.65372  0.25000  1.0000
  Co  Co1       1.0  0.00000  0.15372  0.25000  1.0000
  Co  Co1       1.0  0.50000  0.34628  0.75000  1.0000
  O   O1        1.0  0.09484  0.60861  0.92327  1.0000
  O   O1        1.0  0.40516  0.89129  0.42328  1.0000
  O   O1        1.0  0.59483  0.89141  0.07672  1.0000
  O   O1        1.0  0.90516  0.60870  0.57673  1.0000
  O   O1        1.0  0.90516  0.39139  0.07673  1.0000
  O   O1        1.0  0.59484  0.10871  0.57672  1.0000
  O   O1        1.0  0.40517  0.10859  0.92328  1.0000
  O   O1        1.0  0.09484  0.39130  0.42327  1.0000
  O   O2        1.0  0.07783  0.88134  0.40998  1.0000
  O   O2        1.0  0.42217  0.61856  0.90999  1.0000
  O   O2        1.0  0.57782  0.61867  0.59003  1.0000
  O   O2        1.0  0.92217  0.88142  0.09002  1.0000
  O   O2        1.0  0.92217  0.11866  0.59002  1.0000
  O   O2        1.0  0.57783  0.38144  0.09001  1.0000
  O   O2        1.0  0.42218  0.38133  0.40997  1.0000
  O   O2        1.0  0.07783  0.11858  0.90998  1.0000
  O   O3        1.0  0.25609  0.87732  0.08081  1.0000
  O   O3        1.0  0.24391  0.62256  0.58081  1.0000
  O   O3        1.0  0.75609  0.62268  0.91919  1.0000
  O   O3        1.0  0.74391  0.87744  0.41918  1.0000
  O   O3        1.0  0.74391  0.12268  0.91919  1.0000
  O   O3        1.0  0.75609  0.37744  0.41919  1.0000
  O   O3        1.0  0.24391  0.37732  0.08081  1.0000
  O   O3        1.0  0.25609  0.12256  0.58082  1.0000
