data_image0
_chemical_formula_structural       Co6O16La6
_chemical_formula_sum              "Co6 O16 La6"
_cell_length_a       5.72192
_cell_length_b       5.52238
_cell_length_c       11.9629
_cell_angle_alpha    90.0321
_cell_angle_beta     89.9679
_cell_angle_gamma    88.4445

_space_group_name_H-M_alt    "P 1"
_space_group_IT_number       1

loop_
  _space_group_symop_operation_xyz
  'x, y, z'

loop_
  _atom_site_type_symbol
  _atom_site_label
  _atom_site_symmetry_multiplicity
  _atom_site_fract_x
  _atom_site_fract_y
  _atom_site_fract_z
  _atom_site_occupancy
  Co  Co3       1.0  0.76055  0.74790  0.66260  1.0000
  Co  Co2       1.0  0.19124  0.19765  0.99998  1.0000
  Co  Co1       1.0  0.80977  0.69779  0.00029  1.0000
  Co  Co3       1.0  0.75975  0.74765  0.33583  1.0000
  Co  Co4       1.0  0.24538  0.25036  0.33384  1.0000
  Co  Co4       1.0  0.24488  0.25086  0.66558  1.0000
  O   O1        1.0  0.86239  0.33690  0.00033  1.0000
  O   O2        1.0  0.13223  0.83838  0.00025  1.0000
  O   O3        1.0  0.67399  0.77900  0.85393  1.0000
  O   O3        1.0  0.67723  0.77474  0.14814  1.0000
  O   O4        1.0  0.32054  0.27420  0.14775  1.0000
  O   O4        1.0  0.32067  0.27699  0.85252  1.0000
  O   O5        1.0  0.48189  0.51937  0.64364  1.0000
  O   O5        1.0  0.48194  0.51912  0.35590  1.0000
  O   O6        1.0  0.52946  0.01089  0.35441  1.0000
  O   O6        1.0  0.52936  0.01084  0.64587  1.0000
  O   O7        1.0  0.83135  0.73841  0.49970  1.0000
  O   O8        1.0  0.16544  0.23211  0.49987  1.0000
  O   O9        1.0  0.96626  0.48491  0.69755  1.0000
  O   O9        1.0  0.96720  0.48424  0.30253  1.0000
  O   O10       1.0  0.02139  0.97587  0.30597  1.0000
  O   O10       1.0  0.02107  0.97645  0.69368  1.0000
  La  La1       1.0  0.26656  0.72830  0.18660  1.0000
  La  La1       1.0  0.26695  0.72930  0.81323  1.0000
  La  La2       1.0  0.73133  0.22507  0.81485  1.0000
  La  La2       1.0  0.73190  0.22515  0.18551  1.0000
  La  La3       1.0  0.26008  0.78118  0.49978  1.0000
  La  La4       1.0  0.74920  0.27235  0.49988  1.0000
