data_image0
_chemical_formula_structural       FeSr2O4
_chemical_formula_sum              "Fe1 Sr2 O4"
_cell_length_a       3.88895
_cell_length_b       3.88895
_cell_length_c       6.83892
_cell_angle_alpha    106.52
_cell_angle_beta     106.52
_cell_angle_gamma    90.0003

_space_group_name_H-M_alt    "P 1"
_space_group_IT_number       1

loop_
  _space_group_symop_operation_xyz
  'x, y, z'

loop_
  _atom_site_type_symbol
  _atom_site_label
  _atom_site_symmetry_multiplicity
  _atom_site_fract_x
  _atom_site_fract_y
  _atom_site_fract_z
  _atom_site_occupancy
  Fe  Fe1       1.0  1.00000  0.00000  1.00000  1.0000
  Sr  Sr1       1.0  0.35730  0.35730  0.71461  1.0000
  Sr  Sr1       1.0  0.64270  0.64270  0.28539  1.0000
  O   O1        1.0  0.50000  0.00000  0.00000  1.0000
  O   O1        1.0  1.00000  0.50000  1.00000  1.0000
  O   O2        1.0  0.84294  0.84294  0.68595  1.0000
  O   O2        1.0  0.15706  0.15706  0.31405  1.0000
