data_image0
_chemical_formula_structural       Mn8O16Ti4
_chemical_formula_sum              "Mn8 O16 Ti4"
_cell_length_a       6.2263
_cell_length_b       6.22948
_cell_length_c       8.67307
_cell_angle_alpha    89.8745
_cell_angle_beta     90
_cell_angle_gamma    90

_space_group_name_H-M_alt    "P 1"
_space_group_IT_number       1

loop_
  _space_group_symop_operation_xyz
  'x, y, z'

loop_
  _atom_site_type_symbol
  _atom_site_label
  _atom_site_symmetry_multiplicity
  _atom_site_fract_x
  _atom_site_fract_y
  _atom_site_fract_z
  _atom_site_occupancy
  Mn  Mn1       1.0  0.74776  1.00000  0.75000  1.0000
  Mn  Mn1       1.0  0.24828  1.00000  0.25000  1.0000
  Mn  Mn1       1.0  0.00109  0.74901  0.49855  1.0000
  Mn  Mn1       1.0  0.00109  0.25099  0.00145  1.0000
  Mn  Mn2       1.0  0.74736  0.74839  0.12379  1.0000
  Mn  Mn2       1.0  0.25121  0.25208  0.62542  1.0000
  Mn  Mn2       1.0  0.25121  0.74792  0.87458  1.0000
  Mn  Mn2       1.0  0.74736  0.25161  0.37621  1.0000
  O   O1        1.0  0.96594  0.72942  0.75296  1.0000
  O   O1        1.0  0.03375  0.27142  0.25396  1.0000
  O   O1        1.0  0.27154  0.96587  0.50368  1.0000
  O   O1        1.0  0.72998  0.03427  0.00357  1.0000
  O   O1        1.0  0.03375  0.72858  0.24604  1.0000
  O   O1        1.0  0.96594  0.27058  0.74704  1.0000
  O   O1        1.0  0.72998  0.96573  0.49643  1.0000
  O   O1        1.0  0.27154  0.03413  0.99632  1.0000
  O   O2        1.0  0.51578  0.73026  0.72972  1.0000
  O   O2        1.0  0.48368  0.26956  0.22943  1.0000
  O   O2        1.0  0.26970  0.51570  0.47984  1.0000
  O   O2        1.0  0.73077  0.48405  0.97960  1.0000
  O   O2        1.0  0.48368  0.73044  0.27057  1.0000
  O   O2        1.0  0.51578  0.26974  0.77028  1.0000
  O   O2        1.0  0.73077  0.51595  0.52040  1.0000
  O   O2        1.0  0.26970  0.48430  0.02016  1.0000
  Ti  Ti1       1.0  0.75591  0.50000  0.75000  1.0000
  Ti  Ti1       1.0  0.24565  0.50000  0.25000  1.0000
  Ti  Ti1       1.0  0.50039  0.75510  0.50005  1.0000
  Ti  Ti1       1.0  0.50039  0.24490  0.99995  1.0000
