data_image0
_chemical_formula_structural       FeBaO54Fe22BaFe13
_chemical_formula_sum              "Fe36 Ba2 O54"
_cell_length_a       5.96383
_cell_length_b       5.9575
_cell_length_c       33.4596
_cell_angle_alpha    89.8619
_cell_angle_beta     90.064
_cell_angle_gamma    120.073

_space_group_name_H-M_alt    "P 1"
_space_group_IT_number       1

loop_
  _space_group_symop_operation_xyz
  'x, y, z'

loop_
  _atom_site_type_symbol
  _atom_site_label
  _atom_site_symmetry_multiplicity
  _atom_site_fract_x
  _atom_site_fract_y
  _atom_site_fract_z
  _atom_site_occupancy
  Fe  Fe12      1.0  0.99648  0.49724  0.49986  1.0000
  Ba  Ba1       1.0  0.00075  0.00065  0.74992  1.0000
  O   O1        1.0  0.48395  0.51155  0.24952  1.0000
  O   O1        1.0  0.51515  0.48700  0.74864  1.0000
  O   O2        1.0  0.48423  0.97049  0.24954  1.0000
  O   O2        1.0  0.97191  0.48735  0.74903  1.0000
  O   O3        1.0  0.02663  0.51217  0.24902  1.0000
  O   O3        1.0  0.51444  0.02988  0.74899  1.0000
  O   O4        1.0  0.15813  0.83043  0.32051  1.0000
  O   O4        1.0  0.83517  0.16472  0.82076  1.0000
  O   O5        1.0  0.15832  0.32475  0.32061  1.0000
  O   O5        1.0  0.32880  0.16426  0.82103  1.0000
  O   O6        1.0  0.66768  0.83199  0.32062  1.0000
  O   O6        1.0  0.83632  0.67144  0.82103  1.0000
  O   O7        1.0  0.84114  0.16240  0.67932  1.0000
  O   O7        1.0  0.16803  0.84162  0.17919  1.0000
  O   O8        1.0  0.83997  0.67327  0.67860  1.0000
  O   O8        1.0  0.67679  0.83828  0.17994  1.0000
  O   O9        1.0  0.32933  0.16299  0.67864  1.0000
  O   O9        1.0  0.16818  0.32653  0.17912  1.0000
  O   O10       1.0  0.33576  0.66671  0.68003  1.0000
  O   O10       1.0  0.67160  0.33569  0.18101  1.0000
  O   O11       1.0  0.66059  0.32897  0.32213  1.0000
  O   O11       1.0  0.33491  0.66634  0.82324  1.0000
  O   O12       1.0  0.51388  0.48988  0.38980  1.0000
  O   O12       1.0  0.48537  0.51306  0.89059  1.0000
  O   O13       1.0  0.51452  0.01924  0.38929  1.0000
  O   O13       1.0  0.01887  0.51566  0.89019  1.0000
  O   O14       1.0  0.97647  0.48541  0.38938  1.0000
  O   O14       1.0  0.48334  0.98202  0.89068  1.0000
  O   O15       1.0  0.49080  0.51384  0.61101  1.0000
  O   O15       1.0  0.50742  0.48425  0.11156  1.0000
  O   O16       1.0  0.49475  0.97651  0.61117  1.0000
  O   O16       1.0  0.97498  0.48841  0.11194  1.0000
  O   O17       1.0  0.02747  0.50952  0.61073  1.0000
  O   O17       1.0  0.50712  0.02446  0.11160  1.0000
  O   O18       1.0  0.00499  0.99952  0.38626  1.0000
  O   O18       1.0  0.99423  0.00416  0.88679  1.0000
  O   O19       1.0  0.00513  0.99909  0.61296  1.0000
  O   O19       1.0  0.99189  0.99690  0.11349  1.0000
  O   O20       1.0  0.18017  0.83438  0.53702  1.0000
  O   O20       1.0  0.83250  0.18325  0.03810  1.0000
  O   O21       1.0  0.17521  0.35149  0.53659  1.0000
  O   O21       1.0  0.35427  0.17877  0.03767  1.0000
  O   O22       1.0  0.65301  0.83438  0.53692  1.0000
  O   O22       1.0  0.83284  0.65241  0.03806  1.0000
  O   O23       1.0  0.81844  0.16302  0.46301  1.0000
  O   O23       1.0  0.16417  0.82143  0.96426  1.0000
  O   O24       1.0  0.82233  0.64631  0.46347  1.0000
  O   O24       1.0  0.64750  0.82643  0.96410  1.0000
  O   O25       1.0  0.34303  0.16287  0.46294  1.0000
  O   O25       1.0  0.16439  0.34921  0.96410  1.0000
  O   O26       1.0  0.33444  0.67213  0.46481  1.0000
  O   O26       1.0  0.67381  0.33887  0.96508  1.0000
  O   O27       1.0  0.66294  0.32788  0.53604  1.0000
  O   O27       1.0  0.32577  0.66424  0.03705  1.0000
  Fe  Fe1       1.0  0.33404  0.66747  0.74065  1.0000
  Fe  Fe1       1.0  0.66537  0.33202  0.24194  1.0000
  Fe  Fe2       1.0  0.33882  0.66822  0.29204  1.0000
  Fe  Fe2       1.0  0.67099  0.32948  0.79292  1.0000
  Fe  Fe3       1.0  0.66633  0.33602  0.70878  1.0000
  Fe  Fe3       1.0  0.32933  0.66425  0.20887  1.0000
  Fe  Fe4       1.0  0.99416  0.99213  0.44310  1.0000
  Fe  Fe4       1.0  0.99563  0.00037  0.94370  1.0000
  Fe  Fe5       1.0  0.00098  0.00446  0.55580  1.0000
  Fe  Fe5       1.0  0.00422  0.00359  0.05680  1.0000
  Fe  Fe6       1.0  0.33443  0.67308  0.57303  1.0000
  Fe  Fe6       1.0  0.66790  0.33514  0.07365  1.0000
  Fe  Fe7       1.0  0.66050  0.32652  0.42596  1.0000
  Fe  Fe7       1.0  0.33019  0.66863  0.92552  1.0000
  Fe  Fe8       1.0  0.33009  0.66283  0.40732  1.0000
  Fe  Fe8       1.0  0.66691  0.33458  0.90790  1.0000
  Fe  Fe9       1.0  0.66802  0.33600  0.59331  1.0000
  Fe  Fe9       1.0  0.33515  0.66831  0.09355  1.0000
  Fe  Fe10      1.0  0.49862  0.49778  0.49985  1.0000
  Fe  Fe10      1.0  0.50026  0.50435  0.00018  1.0000
  Fe  Fe11      1.0  0.50078  0.00291  0.49961  1.0000
  Fe  Fe11      1.0  0.00348  0.50376  0.00030  1.0000
  Ba  Ba1       1.0  0.99819  0.99839  0.25076  1.0000
  Fe  Fe12      1.0  0.49996  0.99965  0.00029  1.0000
  Fe  Fe13      1.0  0.16343  0.83982  0.65046  1.0000
  Fe  Fe13      1.0  0.83862  0.16592  0.15022  1.0000
  Fe  Fe14      1.0  0.16729  0.33303  0.64930  1.0000
  Fe  Fe14      1.0  0.33338  0.16710  0.15087  1.0000
  Fe  Fe15      1.0  0.67044  0.83627  0.64938  1.0000
  Fe  Fe15      1.0  0.83872  0.67357  0.15024  1.0000
  Fe  Fe16      1.0  0.83463  0.16536  0.34943  1.0000
  Fe  Fe16      1.0  0.17092  0.82935  0.84981  1.0000
  Fe  Fe17      1.0  0.83483  0.66548  0.34944  1.0000
  Fe  Fe17      1.0  0.67509  0.83077  0.84961  1.0000
  Fe  Fe18      1.0  0.32960  0.16296  0.34882  1.0000
  Fe  Fe18      1.0  0.16840  0.32472  0.84962  1.0000
