data_image0
_chemical_formula_structural       Ni2Ba6O8
_chemical_formula_sum              "Ni2 Ba6 O8"
_cell_length_a       7.25875
_cell_length_b       7.25875
_cell_length_c       7.25876
_cell_angle_alpha    66.1697
_cell_angle_beta     66.1697
_cell_angle_gamma    66.1697

_space_group_name_H-M_alt    "P 1"
_space_group_IT_number       1

loop_
  _space_group_symop_operation_xyz
  'x, y, z'

loop_
  _atom_site_type_symbol
  _atom_site_label
  _atom_site_symmetry_multiplicity
  _atom_site_fract_x
  _atom_site_fract_y
  _atom_site_fract_z
  _atom_site_occupancy
  Ni  Ni1       1.0  0.25000  0.25000  0.25000  1.0000
  Ni  Ni1       1.0  0.75000  0.75000  0.75000  1.0000
  Ba  Ba1       1.0  0.83543  0.25000  0.66457  1.0000
  Ba  Ba1       1.0  0.25000  0.66457  0.83543  1.0000
  Ba  Ba1       1.0  0.66457  0.83543  0.25000  1.0000
  Ba  Ba1       1.0  0.16457  0.75000  0.33543  1.0000
  Ba  Ba1       1.0  0.75000  0.33543  0.16457  1.0000
  Ba  Ba1       1.0  0.33543  0.16457  0.75000  1.0000
  O   O1        1.0  0.50000  0.50000  0.50000  1.0000
  O   O1        1.0  1.00000  0.00000  0.00000  1.0000
  O   O2        1.0  0.48195  0.25000  0.01805  1.0000
  O   O2        1.0  0.25000  0.01805  0.48195  1.0000
  O   O2        1.0  0.01805  0.48195  0.25000  1.0000
  O   O2        1.0  0.51805  0.75000  0.98195  1.0000
  O   O2        1.0  0.75000  0.98195  0.51805  1.0000
  O   O2        1.0  0.98195  0.51805  0.75000  1.0000
