data_image0
_chemical_formula_structural       Co8O20La8
_chemical_formula_sum              "Co8 O20 La8"
_cell_length_a       5.55534
_cell_length_b       15.9822
_cell_length_c       5.76665
_cell_angle_alpha    90.0169
_cell_angle_beta     90.0006
_cell_angle_gamma    90.0241

_space_group_name_H-M_alt    "P 1"
_space_group_IT_number       1

loop_
  _space_group_symop_operation_xyz
  'x, y, z'

loop_
  _atom_site_type_symbol
  _atom_site_label
  _atom_site_symmetry_multiplicity
  _atom_site_fract_x
  _atom_site_fract_y
  _atom_site_fract_z
  _atom_site_occupancy
  Co  Co1       1.0  0.50015  0.99966  0.49999  1.0000
  Co  Co1       1.0  0.99951  0.49988  0.00041  1.0000
  Co  Co1       1.0  0.49964  0.49949  0.49983  1.0000
  Co  Co1       1.0  0.00030  0.00006  0.99976  1.0000
  Co  Co2       1.0  0.44900  0.24998  0.55676  1.0000
  Co  Co2       1.0  0.94899  0.25000  0.94324  1.0000
  Co  Co2       1.0  0.54976  0.75000  0.44277  1.0000
  Co  Co2       1.0  0.04976  0.74993  0.05724  1.0000
  O   O1        1.0  0.77850  0.98345  0.27548  1.0000
  O   O1        1.0  0.27830  0.51650  0.22416  1.0000
  O   O1        1.0  0.22103  0.48331  0.72415  1.0000
  O   O1        1.0  0.72207  0.01660  0.77569  1.0000
  O   O1        1.0  0.22201  0.01658  0.72387  1.0000
  O   O1        1.0  0.72096  0.48334  0.77627  1.0000
  O   O1        1.0  0.77832  0.51649  0.27663  1.0000
  O   O1        1.0  0.27854  0.98346  0.22372  1.0000
  O   O2        1.0  0.53528  0.14177  0.42043  1.0000
  O   O2        1.0  0.03223  0.35875  0.07821  1.0000
  O   O2        1.0  0.46543  0.64184  0.57970  1.0000
  O   O2        1.0  0.96577  0.85816  0.92034  1.0000
  O   O2        1.0  0.46741  0.85888  0.57701  1.0000
  O   O2        1.0  0.96708  0.64110  0.92297  1.0000
  O   O2        1.0  0.53215  0.35876  0.42205  1.0000
  O   O2        1.0  0.03520  0.14174  0.07932  1.0000
  O   O3        1.0  0.09162  0.25012  0.61931  1.0000
  O   O3        1.0  0.59163  0.25014  0.88070  1.0000
  O   O3        1.0  0.91035  0.74992  0.38253  1.0000
  O   O3        1.0  0.41034  0.75009  0.11747  1.0000
  La  La1       1.0  0.97243  0.11196  0.48389  1.0000
  La  La1       1.0  0.47134  0.38809  0.01577  1.0000
  La  La1       1.0  0.02783  0.61184  0.51654  1.0000
  La  La1       1.0  0.52803  0.88811  0.98358  1.0000
  La  La1       1.0  0.02761  0.88817  0.51560  1.0000
  La  La1       1.0  0.52742  0.61178  0.98430  1.0000
  La  La1       1.0  0.97146  0.38809  0.48435  1.0000
  La  La1       1.0  0.47255  0.11195  0.01597  1.0000
