data_image0
_chemical_formula_structural       FeY11Fe8YFe11O48
_chemical_formula_sum              "Fe20 Y12 O48"
_cell_length_a       10.8749
_cell_length_b       10.8829
_cell_length_c       10.8817
_cell_angle_alpha    109.473
_cell_angle_beta     109.469
_cell_angle_gamma    109.49

_space_group_name_H-M_alt    "P 1"
_space_group_IT_number       1

loop_
  _space_group_symop_operation_xyz
  'x, y, z'

loop_
  _atom_site_type_symbol
  _atom_site_label
  _atom_site_symmetry_multiplicity
  _atom_site_fract_x
  _atom_site_fract_y
  _atom_site_fract_z
  _atom_site_occupancy
  Fe  Fe2       1.0  0.37440  0.75002  0.62513  1.0000
  Y   Y1        1.0  0.37403  0.24924  0.12433  1.0000
  Y   Y1        1.0  0.37440  0.62444  0.24918  1.0000
  Y   Y1        1.0  0.12399  0.87440  0.74840  1.0000
  Y   Y1        1.0  0.75102  0.62560  0.37496  1.0000
  Y   Y1        1.0  0.24864  0.87434  0.12390  1.0000
  Y   Y1        1.0  0.87474  0.25008  0.62611  1.0000
  Y   Y1        1.0  0.62437  0.74994  0.87477  1.0000
  Y   Y1        1.0  0.62373  0.37412  0.74797  1.0000
  Y   Y1        1.0  0.87480  0.12445  0.24947  1.0000
  Y   Y1        1.0  0.25127  0.37590  0.62584  1.0000
  Y   Y1        1.0  0.74921  0.12450  0.87435  1.0000
  Fe  Fe1       1.0  0.99952  0.49967  0.99975  1.0000
  Fe  Fe1       1.0  0.00134  0.00162  0.49915  1.0000
  Fe  Fe1       1.0  0.50179  0.50093  0.49842  1.0000
  Fe  Fe1       1.0  0.49987  0.00075  0.00170  1.0000
  Fe  Fe1       1.0  0.49582  0.99725  0.49806  1.0000
  Fe  Fe1       1.0  0.50054  0.50006  0.00043  1.0000
  Fe  Fe1       1.0  0.99787  0.49724  0.49933  1.0000
  Fe  Fe1       1.0  0.99752  0.99906  0.99731  1.0000
  Y   Y1        1.0  0.12344  0.74854  0.37433  1.0000
  Fe  Fe2       1.0  0.12532  0.25038  0.87503  1.0000
  Fe  Fe2       1.0  0.62497  0.87494  0.25037  1.0000
  Fe  Fe2       1.0  0.87516  0.62485  0.75009  1.0000
  Fe  Fe2       1.0  0.74961  0.37454  0.12440  1.0000
  Fe  Fe2       1.0  0.24994  0.12507  0.37403  1.0000
  Fe  Fe2       1.0  0.62487  0.24994  0.37525  1.0000
  Fe  Fe2       1.0  0.87508  0.75006  0.12434  1.0000
  Fe  Fe2       1.0  0.37517  0.12542  0.75072  1.0000
  Fe  Fe2       1.0  0.12463  0.37497  0.25007  1.0000
  Fe  Fe2       1.0  0.25012  0.62503  0.87540  1.0000
  Fe  Fe2       1.0  0.75042  0.87553  0.62482  1.0000
  O   O1        1.0  0.02796  0.70563  0.12211  1.0000
  O   O1        1.0  0.91660  0.79104  0.32209  1.0000
  O   O1        1.0  0.58275  0.40492  0.37630  1.0000
  O   O1        1.0  0.47421  0.09489  0.17827  1.0000
  O   O1        1.0  0.32209  0.41740  0.29447  1.0000
  O   O1        1.0  0.12254  0.52817  0.20632  1.0000
  O   O1        1.0  0.17787  0.97443  0.59457  1.0000
  O   O1        1.0  0.37375  0.08339  0.90608  1.0000
  O   O1        1.0  0.90661  0.87483  0.58381  1.0000
  O   O1        1.0  0.59494  0.67831  0.47379  1.0000
  O   O1        1.0  0.20649  0.62316  0.02876  1.0000
  O   O1        1.0  0.29563  0.82252  0.91773  1.0000
  O   O1        1.0  0.97329  0.29549  0.87866  1.0000
  O   O1        1.0  0.08360  0.20930  0.67729  1.0000
  O   O1        1.0  0.41594  0.59454  0.62559  1.0000
  O   O1        1.0  0.53149  0.90708  0.82246  1.0000
  O   O1        1.0  0.67766  0.58280  0.70472  1.0000
  O   O1        1.0  0.87799  0.47280  0.79516  1.0000
  O   O1        1.0  0.82245  0.02746  0.40541  1.0000
  O   O1        1.0  0.62560  0.91609  0.09443  1.0000
  O   O1        1.0  0.09427  0.12169  0.41556  1.0000
  O   O1        1.0  0.40564  0.32218  0.52958  1.0000
  O   O1        1.0  0.79307  0.37606  0.97098  1.0000
  O   O1        1.0  0.70465  0.17749  0.08307  1.0000
  O   O1        1.0  0.52597  0.12107  0.70412  1.0000
  O   O1        1.0  0.41694  0.32286  0.79201  1.0000
  O   O1        1.0  0.08272  0.37668  0.40506  1.0000
  O   O1        1.0  0.97143  0.17766  0.09474  1.0000
  O   O1        1.0  0.82182  0.29287  0.41662  1.0000
  O   O1        1.0  0.62428  0.20840  0.53073  1.0000
  O   O1        1.0  0.67782  0.59525  0.97217  1.0000
  O   O1        1.0  0.87880  0.90520  0.08291  1.0000
  O   O1        1.0  0.40545  0.58313  0.87950  1.0000
  O   O1        1.0  0.09525  0.47367  0.67805  1.0000
  O   O1        1.0  0.70858  0.03087  0.62517  1.0000
  O   O1        1.0  0.79463  0.91641  0.82180  1.0000
  O   O1        1.0  0.47224  0.87797  0.29437  1.0000
  O   O1        1.0  0.58387  0.67782  0.21041  1.0000
  O   O1        1.0  0.91629  0.62062  0.59431  1.0000
  O   O1        1.0  0.02826  0.82244  0.90471  1.0000
  O   O1        1.0  0.17749  0.71003  0.58358  1.0000
  O   O1        1.0  0.37744  0.79372  0.47180  1.0000
  O   O1        1.0  0.32261  0.40524  0.02846  1.0000
  O   O1        1.0  0.12098  0.09558  0.91696  1.0000
  O   O1        1.0  0.59482  0.41697  0.12198  1.0000
  O   O1        1.0  0.90474  0.52610  0.32193  1.0000
  O   O1        1.0  0.29306  0.97107  0.37652  1.0000
  O   O1        1.0  0.20979  0.08379  0.17746  1.0000
