data_image0
_chemical_formula_structural       FeBaO38Fe3BaFe20
_chemical_formula_sum              "Fe24 Ba2 O38"
_cell_length_a       5.93954
_cell_length_b       5.95164
_cell_length_c       23.533
_cell_angle_alpha    89.9034
_cell_angle_beta     89.9743
_cell_angle_gamma    119.994

_space_group_name_H-M_alt    "P 1"
_space_group_IT_number       1

loop_
  _space_group_symop_operation_xyz
  'x, y, z'

loop_
  _atom_site_type_symbol
  _atom_site_label
  _atom_site_symmetry_multiplicity
  _atom_site_fract_x
  _atom_site_fract_y
  _atom_site_fract_z
  _atom_site_occupancy
  Fe  Fe4       1.0  0.99931  0.99966  0.76272  1.0000
  Ba  Ba2       1.0  0.33286  0.66512  0.74858  1.0000
  O   O1        1.0  0.00201  0.00406  0.34922  1.0000
  O   O2        1.0  0.00026  0.99980  0.64578  1.0000
  O   O3        1.0  0.99729  0.99331  0.84874  1.0000
  O   O4        1.0  0.99807  0.99577  0.14589  1.0000
  O   O5        1.0  0.33637  0.66544  0.55414  1.0000
  O   O6        1.0  0.66507  0.33068  0.44490  1.0000
  O   O7        1.0  0.66821  0.33549  0.05458  1.0000
  O   O8        1.0  0.33005  0.65935  0.94424  1.0000
  O   O9        1.0  0.18283  0.82219  0.25064  1.0000
  O   O9        1.0  0.63921  0.82227  0.25064  1.0000
  O   O10       1.0  0.18287  0.36610  0.25031  1.0000
  O   O11       1.0  0.82013  0.18008  0.75073  1.0000
  O   O11       1.0  0.36029  0.18027  0.75027  1.0000
  O   O12       1.0  0.81887  0.63788  0.75079  1.0000
  O   O13       1.0  0.15660  0.84738  0.44740  1.0000
  O   O13       1.0  0.69110  0.84815  0.44732  1.0000
  O   O14       1.0  0.15835  0.31773  0.44736  1.0000
  O   O15       1.0  0.84233  0.15995  0.55112  1.0000
  O   O15       1.0  0.31281  0.15864  0.55069  1.0000
  O   O16       1.0  0.84359  0.68906  0.55054  1.0000
  O   O17       1.0  0.84363  0.15379  0.94720  1.0000
  O   O17       1.0  0.31115  0.15396  0.94719  1.0000
  O   O18       1.0  0.84459  0.68850  0.94690  1.0000
  O   O19       1.0  0.15432  0.83837  0.05031  1.0000
  O   O19       1.0  0.68461  0.83821  0.05035  1.0000
  O   O20       1.0  0.15372  0.30663  0.05088  1.0000
  O   O21       1.0  0.50313  0.49571  0.35113  1.0000
  O   O21       1.0  0.99212  0.49571  0.35116  1.0000
  O   O22       1.0  0.50175  0.00400  0.35135  1.0000
  O   O23       1.0  0.49962  0.50115  0.64873  1.0000
  O   O23       1.0  0.00708  0.50111  0.64908  1.0000
  O   O24       1.0  0.49918  0.99288  0.64917  1.0000
  O   O25       1.0  0.49111  0.49376  0.85047  1.0000
  O   O25       1.0  0.00414  0.49398  0.85056  1.0000
  O   O26       1.0  0.49207  0.98317  0.84941  1.0000
  O   O27       1.0  0.50268  0.49721  0.14919  1.0000
  O   O27       1.0  0.99514  0.49734  0.14915  1.0000
  O   O28       1.0  0.50231  0.00423  0.14936  1.0000
  Fe  Fe1       1.0  0.00137  0.00138  0.50034  1.0000
  Fe  Fe2       1.0  0.99905  0.99748  0.00005  1.0000
  Fe  Fe3       1.0  0.00263  0.00523  0.26227  1.0000
  Ba  Ba1       1.0  0.66936  0.33847  0.24744  1.0000
  Fe  Fe5       1.0  0.33421  0.66912  0.47292  1.0000
  Fe  Fe6       1.0  0.66733  0.33598  0.52686  1.0000
  Fe  Fe7       1.0  0.66415  0.32717  0.97251  1.0000
  Fe  Fe8       1.0  0.33322  0.66595  0.02696  1.0000
  Fe  Fe9       1.0  0.33743  0.67542  0.31079  1.0000
  Fe  Fe10      1.0  0.66295  0.33648  0.69011  1.0000
  Fe  Fe11      1.0  0.66675  0.33065  0.80844  1.0000
  Fe  Fe12      1.0  0.33750  0.67455  0.19100  1.0000
  Fe  Fe13      1.0  0.16596  0.83493  0.60965  1.0000
  Fe  Fe13      1.0  0.66095  0.83412  0.60724  1.0000
  Fe  Fe14      1.0  0.16663  0.33963  0.60721  1.0000
  Fe  Fe15      1.0  0.83290  0.17423  0.39300  1.0000
  Fe  Fe15      1.0  0.34117  0.17438  0.39290  1.0000
  Fe  Fe16      1.0  0.83247  0.66561  0.39162  1.0000
  Fe  Fe17      1.0  0.83645  0.17545  0.10875  1.0000
  Fe  Fe17      1.0  0.33970  0.17543  0.10874  1.0000
  Fe  Fe18      1.0  0.83441  0.66815  0.10703  1.0000
  Fe  Fe19      1.0  0.16459  0.82313  0.89178  1.0000
  Fe  Fe19      1.0  0.65929  0.82279  0.89169  1.0000
  Fe  Fe20      1.0  0.16873  0.33622  0.89250  1.0000
