data_image0
_chemical_formula_structural       Nb4Co8O18
_chemical_formula_sum              "Nb4 Co8 O18"
_cell_length_a       5.23049
_cell_length_b       5.2305
_cell_length_c       14.3341
_cell_angle_alpha    89.9999
_cell_angle_beta     90.0001
_cell_angle_gamma    120

_space_group_name_H-M_alt    "P 1"
_space_group_IT_number       1

loop_
  _space_group_symop_operation_xyz
  'x, y, z'

loop_
  _atom_site_type_symbol
  _atom_site_label
  _atom_site_symmetry_multiplicity
  _atom_site_fract_x
  _atom_site_fract_y
  _atom_site_fract_z
  _atom_site_occupancy
  Nb  Nb1       1.0  0.00000  0.00000  0.14181  1.0000
  Nb  Nb1       1.0  0.00000  0.00000  0.64181  1.0000
  Nb  Nb1       1.0  0.00000  0.00000  0.85819  1.0000
  Nb  Nb1       1.0  0.00000  0.00000  0.35819  1.0000
  Co  Co1       1.0  0.66667  0.33333  0.48529  1.0000
  Co  Co1       1.0  0.66667  0.33333  0.98529  1.0000
  Co  Co1       1.0  0.33333  0.66667  0.51471  1.0000
  Co  Co1       1.0  0.33333  0.66667  0.01471  1.0000
  Co  Co2       1.0  0.66667  0.33333  0.19318  1.0000
  Co  Co2       1.0  0.66667  0.33333  0.69318  1.0000
  Co  Co2       1.0  0.33333  0.66667  0.80682  1.0000
  Co  Co2       1.0  0.33333  0.66667  0.30682  1.0000
  O   O1        1.0  0.29127  0.00000  0.25000  1.0000
  O   O1        1.0  0.70873  0.70873  0.25000  1.0000
  O   O1        1.0  1.00000  0.29127  0.25000  1.0000
  O   O1        1.0  0.29127  0.29127  0.75000  1.0000
  O   O1        1.0  0.00000  0.70873  0.75000  1.0000
  O   O1        1.0  0.70873  0.00000  0.75000  1.0000
  O   O2        1.0  0.02253  0.67658  0.41660  1.0000
  O   O2        1.0  0.65405  0.97747  0.41660  1.0000
  O   O2        1.0  0.32342  0.34595  0.41660  1.0000
  O   O2        1.0  0.02253  0.34595  0.91660  1.0000
  O   O2        1.0  0.32342  0.97747  0.91660  1.0000
  O   O2        1.0  0.65405  0.67658  0.91660  1.0000
  O   O2        1.0  0.97747  0.32342  0.58340  1.0000
  O   O2        1.0  0.34595  0.02253  0.58340  1.0000
  O   O2        1.0  0.67658  0.65405  0.58340  1.0000
  O   O2        1.0  0.97747  0.65405  0.08340  1.0000
  O   O2        1.0  0.67658  0.02253  0.08340  1.0000
  O   O2        1.0  0.34595  0.32342  0.08340  1.0000
