data_image0
_chemical_formula_structural       FeCa2FeO4
_chemical_formula_sum              "Fe2 Ca2 O4"
_cell_length_a       5.52465
_cell_length_b       5.52467
_cell_length_c       3.43201
_cell_angle_alpha    90
_cell_angle_beta     89.9999
_cell_angle_gamma    90

_space_group_name_H-M_alt    "P 1"
_space_group_IT_number       1

loop_
  _space_group_symop_operation_xyz
  'x, y, z'

loop_
  _atom_site_type_symbol
  _atom_site_label
  _atom_site_symmetry_multiplicity
  _atom_site_fract_x
  _atom_site_fract_y
  _atom_site_fract_z
  _atom_site_occupancy
  Fe  Fe1       1.0  0.50000  0.50000  1.00000  1.0000
  Ca  Ca1       1.0  0.00000  0.50000  0.58730  1.0000
  Ca  Ca1       1.0  0.50000  0.00000  0.41270  1.0000
  Fe  Fe1       1.0  1.00000  0.00000  0.00000  1.0000
  O   O1        1.0  0.77912  0.27912  0.11701  1.0000
  O   O1        1.0  0.72088  0.77912  0.88299  1.0000
  O   O1        1.0  0.22088  0.72088  0.11701  1.0000
  O   O1        1.0  0.27912  0.22088  0.88299  1.0000
