data_image0
_chemical_formula_structural       Mn5O8
_chemical_formula_sum              "Mn5 O8"
_cell_length_a       4.95415
_cell_length_b       5.83958
_cell_length_c       5.98856
_cell_angle_alpha    119.18
_cell_angle_beta     107.105
_cell_angle_gamma    90

_space_group_name_H-M_alt    "P 1"
_space_group_IT_number       1

loop_
  _space_group_symop_operation_xyz
  'x, y, z'

loop_
  _atom_site_type_symbol
  _atom_site_label
  _atom_site_symmetry_multiplicity
  _atom_site_fract_x
  _atom_site_fract_y
  _atom_site_fract_z
  _atom_site_occupancy
  Mn  Mn1       1.0  0.50000  1.00000  1.00000  1.0000
  Mn  Mn2       1.0  0.00000  0.74089  1.00000  1.0000
  Mn  Mn2       1.0  0.00000  0.25911  1.00000  1.0000
  Mn  Mn3       1.0  0.34256  0.27925  0.55851  1.0000
  Mn  Mn3       1.0  0.65744  0.72075  0.44149  1.0000
  O   O1        1.0  0.60254  0.66163  0.77586  1.0000
  O   O1        1.0  0.39746  0.33837  0.22414  1.0000
  O   O2        1.0  0.60254  0.11424  0.77586  1.0000
  O   O2        1.0  0.39746  0.88576  0.22414  1.0000
  O   O3        1.0  0.08809  0.89615  0.79230  1.0000
  O   O3        1.0  0.91191  0.10385  0.20770  1.0000
  O   O4        1.0  0.07002  0.39446  0.78892  1.0000
  O   O4        1.0  0.92999  0.60554  0.21108  1.0000
