data_image0
_chemical_formula_structural       Y4Mn4O14
_chemical_formula_sum              "Y4 Mn4 O14"
_cell_length_a       7.14045
_cell_length_b       7.14045
_cell_length_c       7.14045
_cell_angle_alpha    60
_cell_angle_beta     60
_cell_angle_gamma    60

_space_group_name_H-M_alt    "P 1"
_space_group_IT_number       1

loop_
  _space_group_symop_operation_xyz
  'x, y, z'

loop_
  _atom_site_type_symbol
  _atom_site_label
  _atom_site_symmetry_multiplicity
  _atom_site_fract_x
  _atom_site_fract_y
  _atom_site_fract_z
  _atom_site_occupancy
  Y   Y1        1.0  0.00000  0.50000  0.50000  1.0000
  Y   Y1        1.0  0.50000  0.00000  0.50000  1.0000
  Y   Y1        1.0  0.50000  0.50000  0.00000  1.0000
  Y   Y1        1.0  0.50000  0.50000  0.50000  1.0000
  Mn  Mn1       1.0  0.50000  0.00000  0.00000  1.0000
  Mn  Mn1       1.0  0.00000  0.50000  0.00000  1.0000
  Mn  Mn1       1.0  0.00000  0.00000  0.50000  1.0000
  Mn  Mn1       1.0  0.00000  0.00000  0.00000  1.0000
  O   O1        1.0  0.07805  0.07805  0.67195  1.0000
  O   O1        1.0  0.67195  0.67195  0.07805  1.0000
  O   O1        1.0  0.07805  0.67196  0.07805  1.0000
  O   O1        1.0  0.67196  0.07805  0.67196  1.0000
  O   O1        1.0  0.67196  0.07805  0.07805  1.0000
  O   O1        1.0  0.07805  0.67195  0.67196  1.0000
  O   O1        1.0  0.92195  0.92195  0.32805  1.0000
  O   O1        1.0  0.32805  0.32805  0.92196  1.0000
  O   O1        1.0  0.92195  0.32805  0.92196  1.0000
  O   O1        1.0  0.32805  0.92196  0.32805  1.0000
  O   O1        1.0  0.32805  0.92196  0.92196  1.0000
  O   O1        1.0  0.92196  0.32805  0.32805  1.0000
  O   O2        1.0  0.62500  0.62500  0.62500  1.0000
  O   O2        1.0  0.37500  0.37500  0.37500  1.0000
