data_image0
_chemical_formula_structural       NbSr8Nb3O18
_chemical_formula_sum              "Nb4 Sr8 O18"
_cell_length_a       5.9666
_cell_length_b       15.932
_cell_length_c       5.96632
_cell_angle_alpha    90.0027
_cell_angle_beta     120
_cell_angle_gamma    89.9978

_space_group_name_H-M_alt    "P 1"
_space_group_IT_number       1

loop_
  _space_group_symop_operation_xyz
  'x, y, z'

loop_
  _atom_site_type_symbol
  _atom_site_label
  _atom_site_symmetry_multiplicity
  _atom_site_fract_x
  _atom_site_fract_y
  _atom_site_fract_z
  _atom_site_occupancy
  Nb  Nb1       1.0  0.33295  0.15410  0.66652  1.0000
  Sr  Sr1       1.0  0.00000  0.50000  0.00000  1.0000
  Sr  Sr2       1.0  0.33371  0.86070  0.66672  1.0000
  Sr  Sr2       1.0  0.66629  0.13930  0.33328  1.0000
  Sr  Sr2       1.0  0.66679  0.36072  0.33338  1.0000
  Sr  Sr2       1.0  0.33321  0.63928  0.66662  1.0000
  Sr  Sr3       1.0  0.00012  0.74999  0.00000  1.0000
  Sr  Sr3       1.0  0.99988  0.25001  1.00000  1.0000
  Sr  Sr1       1.0  1.00000  0.00000  1.00000  1.0000
  Nb  Nb1       1.0  0.66705  0.84590  0.33348  1.0000
  Nb  Nb1       1.0  0.66659  0.65408  0.33324  1.0000
  Nb  Nb1       1.0  0.33341  0.34592  0.66676  1.0000
  O   O1        1.0  0.35044  0.89828  0.27342  1.0000
  O   O1        1.0  0.64956  0.10172  0.72658  1.0000
  O   O1        1.0  0.72740  0.89795  0.07664  1.0000
  O   O1        1.0  0.27260  0.10205  0.92336  1.0000
  O   O1        1.0  0.92395  0.89808  0.65036  1.0000
  O   O1        1.0  0.07605  0.10192  0.34964  1.0000
  O   O1        1.0  0.65048  0.39801  0.72694  1.0000
  O   O1        1.0  0.34952  0.60199  0.27306  1.0000
  O   O1        1.0  0.27345  0.39820  0.92351  1.0000
  O   O1        1.0  0.72655  0.60180  0.07649  1.0000
  O   O1        1.0  0.07675  0.39814  0.34984  1.0000
  O   O1        1.0  0.92325  0.60186  0.65016  1.0000
  O   O2        1.0  0.96280  0.74992  0.40550  1.0000
  O   O2        1.0  0.03720  0.25008  0.59450  1.0000
  O   O2        1.0  0.59467  0.75005  0.55717  1.0000
  O   O2        1.0  0.40533  0.24995  0.44283  1.0000
  O   O2        1.0  0.44296  0.75001  0.03741  1.0000
  O   O2        1.0  0.55704  0.24999  0.96259  1.0000
