data_image0
_chemical_formula_structural       BaMn5Ba4MnBa3O20
_chemical_formula_sum              "Ba8 Mn6 O20"
_cell_length_a       5.76824
_cell_length_b       7.23062
_cell_length_c       13.0121
_cell_angle_alpha    90.021
_cell_angle_beta     90.0007
_cell_angle_gamma    113.509

_space_group_name_H-M_alt    "P 1"
_space_group_IT_number       1

loop_
  _space_group_symop_operation_xyz
  'x, y, z'

loop_
  _atom_site_type_symbol
  _atom_site_label
  _atom_site_symmetry_multiplicity
  _atom_site_fract_x
  _atom_site_fract_y
  _atom_site_fract_z
  _atom_site_occupancy
  Ba  Ba2       1.0  0.75599  0.51199  0.11195  1.0000
  Mn  Mn1       1.0  0.99995  0.99990  0.00006  1.0000
  Mn  Mn2       1.0  0.62459  0.24923  0.34728  1.0000
  Mn  Mn2       1.0  0.37602  0.75198  0.65378  1.0000
  Mn  Mn2       1.0  0.87656  0.75306  0.84700  1.0000
  Mn  Mn2       1.0  0.12444  0.24893  0.15265  1.0000
  Ba  Ba1       1.0  0.96265  0.92532  0.35809  1.0000
  Ba  Ba1       1.0  0.03784  0.07564  0.64146  1.0000
  Ba  Ba1       1.0  0.53796  0.07588  0.85826  1.0000
  Ba  Ba1       1.0  0.46249  0.92503  0.14202  1.0000
  Mn  Mn1       1.0  0.50019  0.00037  0.49972  1.0000
  Ba  Ba2       1.0  0.24412  0.48823  0.88705  1.0000
  Ba  Ba2       1.0  0.74423  0.48843  0.61313  1.0000
  Ba  Ba2       1.0  0.25618  0.51235  0.38813  1.0000
  O   O1        1.0  0.53423  0.06838  0.64419  1.0000
  O   O1        1.0  0.46563  0.93131  0.35628  1.0000
  O   O1        1.0  0.96564  0.93132  0.14348  1.0000
  O   O1        1.0  0.03397  0.06789  0.85574  1.0000
  O   O2        1.0  0.76274  0.52552  0.34933  1.0000
  O   O2        1.0  0.23739  0.47473  0.64958  1.0000
  O   O2        1.0  0.73769  0.47532  0.85038  1.0000
  O   O2        1.0  0.26261  0.52524  0.15038  1.0000
  O   O3        1.0  0.38399  0.20725  0.46162  1.0000
  O   O3        1.0  0.17807  0.79407  0.53877  1.0000
  O   O3        1.0  0.67744  0.79342  0.96141  1.0000
  O   O3        1.0  0.88380  0.20666  0.03816  1.0000
  O   O3        1.0  0.61602  0.79406  0.53875  1.0000
  O   O3        1.0  0.82327  0.20725  0.46160  1.0000
  O   O3        1.0  0.32284  0.20666  0.03819  1.0000
  O   O3        1.0  0.11599  0.79342  0.96142  1.0000
  O   O4        1.0  0.36274  0.22558  0.24992  1.0000
  O   O4        1.0  0.13526  0.77002  0.75017  1.0000
  O   O4        1.0  0.63484  0.77002  0.75016  1.0000
  O   O4        1.0  0.86264  0.22558  0.24987  1.0000
