data_image0
_chemical_formula_structural       FeNb2FeO8
_chemical_formula_sum              "Fe2 Nb2 O8"
_cell_length_a       3.92206
_cell_length_b       6.66295
_cell_length_c       6.74337
_cell_angle_alpha    106.518
_cell_angle_beta     89.9997
_cell_angle_gamma    107.115

_space_group_name_H-M_alt    "P 1"
_space_group_IT_number       1

loop_
  _space_group_symop_operation_xyz
  'x, y, z'

loop_
  _atom_site_type_symbol
  _atom_site_label
  _atom_site_symmetry_multiplicity
  _atom_site_fract_x
  _atom_site_fract_y
  _atom_site_fract_z
  _atom_site_occupancy
  Fe  Fe1       1.0  0.80327  0.60655  0.19154  1.0000
  Nb  Nb1       1.0  0.10490  0.20980  0.22521  1.0000
  Nb  Nb1       1.0  0.89510  0.79020  0.77479  1.0000
  Fe  Fe1       1.0  0.19673  0.39345  0.80846  1.0000
  O   O1        1.0  0.74371  0.48739  0.85595  1.0000
  O   O1        1.0  0.25629  0.51261  0.14405  1.0000
  O   O2        1.0  0.63614  0.27227  0.20401  1.0000
  O   O2        1.0  0.36386  0.72773  0.79599  1.0000
  O   O3        1.0  0.94486  0.88973  0.13222  1.0000
  O   O3        1.0  0.05514  0.11027  0.86778  1.0000
  O   O4        1.0  0.86284  0.72567  0.48741  1.0000
  O   O4        1.0  0.13716  0.27433  0.51259  1.0000
