data_image0
_chemical_formula_structural       Fe6O8
_chemical_formula_sum              "Fe6 O8"
_cell_length_a       6.02783
_cell_length_b       5.97724
_cell_length_c       5.96524
_cell_angle_alpha    60.0896
_cell_angle_beta     60.3357
_cell_angle_gamma    59.8887

_space_group_name_H-M_alt    "P 1"
_space_group_IT_number       1

loop_
  _space_group_symop_operation_xyz
  'x, y, z'

loop_
  _atom_site_type_symbol
  _atom_site_label
  _atom_site_symmetry_multiplicity
  _atom_site_fract_x
  _atom_site_fract_y
  _atom_site_fract_z
  _atom_site_occupancy
  Fe  Fe3       1.0  0.50000  0.50000  0.00000  1.0000
  Fe  Fe1       1.0  0.11905  0.12165  0.12969  1.0000
  Fe  Fe2       1.0  1.00000  0.50000  0.50000  1.0000
  Fe  Fe2       1.0  0.50000  1.00000  0.50000  1.0000
  Fe  Fe1       1.0  0.88095  0.87835  0.87031  1.0000
  Fe  Fe3       1.0  0.50000  0.50000  0.50000  1.0000
  O   O1        1.0  0.26207  0.75829  0.73934  1.0000
  O   O1        1.0  0.74808  0.27004  0.74116  1.0000
  O   O1        1.0  0.73793  0.24171  0.26066  1.0000
  O   O1        1.0  0.25192  0.72996  0.25884  1.0000
  O   O2        1.0  0.75303  0.74937  0.26258  1.0000
  O   O2        1.0  0.75308  0.74922  0.73487  1.0000
  O   O2        1.0  0.24697  0.25063  0.73742  1.0000
  O   O2        1.0  0.24692  0.25078  0.26513  1.0000
