data_image0
_chemical_formula_structural       MnSr8Mn3O16
_chemical_formula_sum              "Mn4 Sr8 O16"
_cell_length_a       7.66837
_cell_length_b       7.66837
_cell_length_c       6.86161
_cell_angle_alpha    106.225
_cell_angle_beta     106.225
_cell_angle_gamma    89.996

_space_group_name_H-M_alt    "P 1"
_space_group_IT_number       1

loop_
  _space_group_symop_operation_xyz
  'x, y, z'

loop_
  _atom_site_type_symbol
  _atom_site_label
  _atom_site_symmetry_multiplicity
  _atom_site_fract_x
  _atom_site_fract_y
  _atom_site_fract_z
  _atom_site_occupancy
  Mn  Mn1       1.0  0.00000  0.50000  1.00000  1.0000
  Sr  Sr1       1.0  0.17789  0.17789  0.71156  1.0000
  Sr  Sr1       1.0  0.82211  0.32211  0.28844  1.0000
  Sr  Sr1       1.0  0.67789  0.17789  0.71156  1.0000
  Sr  Sr1       1.0  0.32211  0.82211  0.28844  1.0000
  Sr  Sr1       1.0  0.17789  0.67789  0.71156  1.0000
  Sr  Sr1       1.0  0.82211  0.82211  0.28844  1.0000
  Sr  Sr1       1.0  0.67789  0.67789  0.71156  1.0000
  Sr  Sr1       1.0  0.32211  0.32211  0.28844  1.0000
  Mn  Mn1       1.0  0.50000  0.50000  1.00000  1.0000
  Mn  Mn1       1.0  0.00000  0.00000  0.00000  1.0000
  Mn  Mn1       1.0  0.50000  0.00000  0.00000  1.0000
  O   O1        1.0  0.25000  0.50000  1.00000  1.0000
  O   O1        1.0  0.50000  0.25000  0.00000  1.0000
  O   O1        1.0  0.75000  0.50000  1.00000  1.0000
  O   O1        1.0  1.00000  0.25000  0.00000  1.0000
  O   O1        1.0  0.25000  1.00000  1.00000  1.0000
  O   O1        1.0  0.50000  0.75000  0.00000  1.0000
  O   O1        1.0  0.75000  1.00000  1.00000  1.0000
  O   O1        1.0  1.00000  0.75000  0.00000  1.0000
  O   O2        1.0  0.42187  0.42187  0.68747  1.0000
  O   O2        1.0  0.07813  0.07813  0.31253  1.0000
  O   O2        1.0  0.92187  0.42187  0.68747  1.0000
  O   O2        1.0  0.57813  0.07813  0.31253  1.0000
  O   O2        1.0  0.42187  0.92187  0.68747  1.0000
  O   O2        1.0  0.07813  0.57813  0.31253  1.0000
  O   O2        1.0  0.92187  0.92187  0.68747  1.0000
  O   O2        1.0  0.57813  0.57813  0.31253  1.0000
