data_image0
_chemical_formula_structural       Ni4Nb8O24
_chemical_formula_sum              "Ni4 Nb8 O24"
_cell_length_a       14.2607
_cell_length_b       5.78161
_cell_length_c       5.12916
_cell_angle_alpha    90
_cell_angle_beta     90
_cell_angle_gamma    90

_space_group_name_H-M_alt    "P 1"
_space_group_IT_number       1

loop_
  _space_group_symop_operation_xyz
  'x, y, z'

loop_
  _atom_site_type_symbol
  _atom_site_label
  _atom_site_symmetry_multiplicity
  _atom_site_fract_x
  _atom_site_fract_y
  _atom_site_fract_z
  _atom_site_occupancy
  Ni  Ni1       1.0  0.00001  0.85031  0.75001  1.0000
  Ni  Ni1       1.0  0.49999  0.64969  0.25001  1.0000
  Ni  Ni1       1.0  0.00001  0.14969  0.25001  1.0000
  Ni  Ni1       1.0  0.49999  0.35031  0.75001  1.0000
  Nb  Nb1       1.0  0.15849  0.67818  0.24949  1.0000
  Nb  Nb1       1.0  0.34151  0.82182  0.74949  1.0000
  Nb  Nb1       1.0  0.65848  0.82183  0.75050  1.0000
  Nb  Nb1       1.0  0.84152  0.67817  0.25050  1.0000
  Nb  Nb1       1.0  0.84152  0.32183  0.75050  1.0000
  Nb  Nb1       1.0  0.65848  0.17817  0.25050  1.0000
  Nb  Nb1       1.0  0.34151  0.17818  0.24949  1.0000
  Nb  Nb1       1.0  0.15849  0.32182  0.74949  1.0000
  O   O1        1.0  0.09340  0.61030  0.91999  1.0000
  O   O1        1.0  0.40660  0.88970  0.41999  1.0000
  O   O1        1.0  0.59340  0.88970  0.08000  1.0000
  O   O1        1.0  0.90660  0.61030  0.58000  1.0000
  O   O1        1.0  0.90660  0.38970  0.08000  1.0000
  O   O1        1.0  0.59340  0.11030  0.58000  1.0000
  O   O1        1.0  0.40660  0.11030  0.91999  1.0000
  O   O1        1.0  0.09340  0.38970  0.41999  1.0000
  O   O2        1.0  0.07744  0.88498  0.41357  1.0000
  O   O2        1.0  0.42256  0.61502  0.91357  1.0000
  O   O2        1.0  0.57742  0.61502  0.58647  1.0000
  O   O2        1.0  0.92258  0.88498  0.08647  1.0000
  O   O2        1.0  0.92258  0.11502  0.58647  1.0000
  O   O2        1.0  0.57742  0.38498  0.08647  1.0000
  O   O2        1.0  0.42256  0.38498  0.41357  1.0000
  O   O2        1.0  0.07744  0.11502  0.91357  1.0000
  O   O3        1.0  0.25644  0.87845  0.07868  1.0000
  O   O3        1.0  0.24356  0.62155  0.57868  1.0000
  O   O3        1.0  0.75645  0.62158  0.92128  1.0000
  O   O3        1.0  0.74355  0.87842  0.42128  1.0000
  O   O3        1.0  0.74355  0.12158  0.92128  1.0000
  O   O3        1.0  0.75645  0.37842  0.42128  1.0000
  O   O3        1.0  0.24356  0.37845  0.07868  1.0000
  O   O3        1.0  0.25644  0.12155  0.57868  1.0000
