data_image0
_chemical_formula_structural       Ca4O12Ti4
_chemical_formula_sum              "Ca4 O12 Ti4"
_cell_length_a       5.52398
_cell_length_b       7.70995
_cell_length_c       5.41296
_cell_angle_alpha    90
_cell_angle_beta     90
_cell_angle_gamma    90

_space_group_name_H-M_alt    "P 1"
_space_group_IT_number       1

loop_
  _space_group_symop_operation_xyz
  'x, y, z'

loop_
  _atom_site_type_symbol
  _atom_site_label
  _atom_site_symmetry_multiplicity
  _atom_site_fract_x
  _atom_site_fract_y
  _atom_site_fract_z
  _atom_site_occupancy
  Ca  Ca1       1.0  0.04458  0.25000  0.00963  1.0000
  Ca  Ca1       1.0  0.54458  0.25000  0.49037  1.0000
  Ca  Ca1       1.0  0.95542  0.75000  0.99037  1.0000
  Ca  Ca1       1.0  0.45542  0.75000  0.50963  1.0000
  O   O1        1.0  0.47825  0.25000  0.91889  1.0000
  O   O1        1.0  0.97825  0.25000  0.58111  1.0000
  O   O1        1.0  0.52175  0.75000  0.08111  1.0000
  O   O1        1.0  0.02175  0.75000  0.41889  1.0000
  O   O2        1.0  0.29118  0.04256  0.29207  1.0000
  O   O2        1.0  0.79118  0.45744  0.20793  1.0000
  O   O2        1.0  0.70882  0.54256  0.70793  1.0000
  O   O2        1.0  0.20882  0.95744  0.79207  1.0000
  O   O2        1.0  0.70882  0.95744  0.70793  1.0000
  O   O2        1.0  0.20882  0.54256  0.79207  1.0000
  O   O2        1.0  0.29118  0.45744  0.29207  1.0000
  O   O2        1.0  0.79118  0.04256  0.20793  1.0000
  Ti  Ti1       1.0  1.00000  0.00000  0.50000  1.0000
  Ti  Ti1       1.0  0.50000  0.50000  0.00000  1.0000
  Ti  Ti1       1.0  1.00000  0.50000  0.50000  1.0000
  Ti  Ti1       1.0  0.50000  0.00000  1.00000  1.0000
