data_image0
_chemical_formula_structural       La2O3
_chemical_formula_sum              "La2 O3"
_cell_length_a       3.97547
_cell_length_b       3.97547
_cell_length_c       6.23755
_cell_angle_alpha    90
_cell_angle_beta     90
_cell_angle_gamma    120

_space_group_name_H-M_alt    "P 1"
_space_group_IT_number       1

loop_
  _space_group_symop_operation_xyz
  'x, y, z'

loop_
  _atom_site_type_symbol
  _atom_site_label
  _atom_site_symmetry_multiplicity
  _atom_site_fract_x
  _atom_site_fract_y
  _atom_site_fract_z
  _atom_site_occupancy
  La  La1       1.0  0.66667  0.33333  0.75289  1.0000
  La  La1       1.0  0.33333  0.66667  0.24711  1.0000
  O   O1        1.0  1.00000  1.00000  1.00000  1.0000
  O   O2        1.0  0.33333  0.66667  0.64567  1.0000
  O   O2        1.0  0.66667  0.33333  0.35433  1.0000
