data_image0
_chemical_formula_structural       ONb7Sr8O26NbO
_chemical_formula_sum              "O28 Nb8 Sr8"
_cell_length_a       8.03272
_cell_length_b       13.9994
_cell_length_c       5.7887
_cell_angle_alpha    90
_cell_angle_beta     90
_cell_angle_gamma    98.2584

_space_group_name_H-M_alt    "P 1"
_space_group_IT_number       1

loop_
  _space_group_symop_operation_xyz
  'x, y, z'

loop_
  _atom_site_type_symbol
  _atom_site_label
  _atom_site_symmetry_multiplicity
  _atom_site_fract_x
  _atom_site_fract_y
  _atom_site_fract_z
  _atom_site_occupancy
  O   O14       1.0  0.91212  0.59188  0.02412  1.0000
  Nb  Nb1       1.0  0.52638  0.11046  0.76562  1.0000
  Nb  Nb2       1.0  0.41865  0.68032  0.77398  1.0000
  Nb  Nb2       1.0  0.58135  0.31968  0.27399  1.0000
  Nb  Nb3       1.0  0.97150  0.88982  0.26620  1.0000
  Nb  Nb3       1.0  0.02850  0.11018  0.76620  1.0000
  Nb  Nb4       1.0  0.92053  0.68076  0.77392  1.0000
  Nb  Nb4       1.0  0.07947  0.31924  0.27392  1.0000
  Sr  Sr1       1.0  0.22398  0.89763  0.76373  1.0000
  Sr  Sr1       1.0  0.77602  0.10237  0.26373  1.0000
  Sr  Sr2       1.0  0.14248  0.57196  0.30531  1.0000
  Sr  Sr2       1.0  0.85752  0.42804  0.80531  1.0000
  Sr  Sr3       1.0  0.72218  0.89023  0.76297  1.0000
  Sr  Sr3       1.0  0.27782  0.10977  0.26297  1.0000
  Sr  Sr4       1.0  0.64301  0.57774  0.26792  1.0000
  Sr  Sr4       1.0  0.35699  0.42226  0.76792  1.0000
  O   O1        1.0  0.52503  0.99119  0.52701  1.0000
  O   O1        1.0  0.47497  0.00881  0.02701  1.0000
  O   O2        1.0  0.47558  0.79110  0.49528  1.0000
  O   O2        1.0  0.52442  0.20890  0.99528  1.0000
  O   O3        1.0  0.40631  0.57908  0.54765  1.0000
  O   O3        1.0  0.59369  0.42092  0.04765  1.0000
  O   O4        1.0  0.22598  0.90331  0.30912  1.0000
  O   O4        1.0  0.77402  0.09669  0.80912  1.0000
  O   O5        1.0  0.17529  0.70155  0.72125  1.0000
  O   O5        1.0  0.82471  0.29845  0.22126  1.0000
  O   O6        1.0  0.43526  0.81027  0.98292  1.0000
  O   O6        1.0  0.56474  0.18973  0.48292  1.0000
  O   O7        1.0  0.38330  0.59507  0.02620  1.0000
  O   O7        1.0  0.61670  0.40493  0.52620  1.0000
  O   O8        1.0  0.97061  0.99276  0.52513  1.0000
  O   O8        1.0  0.02939  0.00724  0.02513  1.0000
  O   O9        1.0  0.92135  0.79316  0.50140  1.0000
  O   O9        1.0  0.07865  0.20684  0.00140  1.0000
  O   O10       1.0  0.88286  0.58207  0.54639  1.0000
  O   O10       1.0  0.11714  0.41793  0.04639  1.0000
  O   O11       1.0  0.72753  0.90946  0.20819  1.0000
  O   O11       1.0  0.27247  0.09054  0.70819  1.0000
  O   O12       1.0  0.67469  0.69967  0.80803  1.0000
  O   O12       1.0  0.32531  0.30033  0.30803  1.0000
  O   O13       1.0  0.97014  0.80867  0.98806  1.0000
  O   O13       1.0  0.02986  0.19133  0.48806  1.0000
  Nb  Nb1       1.0  0.47362  0.88954  0.26562  1.0000
  O   O14       1.0  0.08788  0.40812  0.52412  1.0000
