data_image0
_chemical_formula_structural       SrO4SrTi
_chemical_formula_sum              "Sr2 O4 Ti1"
_cell_length_a       3.93803
_cell_length_b       3.93803
_cell_length_c       6.92904
_cell_angle_alpha    106.509
_cell_angle_beta     106.509
_cell_angle_gamma    90.0004

_space_group_name_H-M_alt    "P 1"
_space_group_IT_number       1

loop_
  _space_group_symop_operation_xyz
  'x, y, z'

loop_
  _atom_site_type_symbol
  _atom_site_label
  _atom_site_symmetry_multiplicity
  _atom_site_fract_x
  _atom_site_fract_y
  _atom_site_fract_z
  _atom_site_occupancy
  Sr  Sr1       1.0  0.35443  0.35443  0.70886  1.0000
  O   O1        1.0  0.50000  1.00000  0.00000  1.0000
  O   O2        1.0  0.15864  0.15864  0.31729  1.0000
  O   O2        1.0  0.84136  0.84136  0.68271  1.0000
  O   O1        1.0  0.00000  0.50000  0.00000  1.0000
  Sr  Sr1       1.0  0.64557  0.64557  0.29114  1.0000
  Ti  Ti1       1.0  0.00000  1.00000  0.00000  1.0000
