data_image0
_chemical_formula_structural       Mg2O6Ti2
_chemical_formula_sum              "Mg2 O6 Ti2"
_cell_length_a       5.11792
_cell_length_b       5.11792
_cell_length_c       5.53699
_cell_angle_alpha    62.4736
_cell_angle_beta     62.4736
_cell_angle_gamma    59.9999

_space_group_name_H-M_alt    "P 1"
_space_group_IT_number       1

loop_
  _space_group_symop_operation_xyz
  'x, y, z'

loop_
  _atom_site_type_symbol
  _atom_site_label
  _atom_site_symmetry_multiplicity
  _atom_site_fract_x
  _atom_site_fract_y
  _atom_site_fract_z
  _atom_site_occupancy
  Mg  Mg1       1.0  0.64474  0.64474  0.06579  1.0000
  Mg  Mg1       1.0  0.35526  0.35526  0.93421  1.0000
  O   O1        1.0  0.04808  0.43861  0.73999  1.0000
  O   O1        1.0  0.77333  0.04808  0.73999  1.0000
  O   O1        1.0  0.43861  0.77333  0.73999  1.0000
  O   O1        1.0  0.95192  0.56139  0.26001  1.0000
  O   O1        1.0  0.22667  0.95192  0.26001  1.0000
  O   O1        1.0  0.56139  0.22667  0.26001  1.0000
  Ti  Ti1       1.0  0.85462  0.85462  0.43613  1.0000
  Ti  Ti1       1.0  0.14538  0.14538  0.56387  1.0000
